<?xml version="1.0" encoding="UTF-8"?>
<routes>
    <!-- Vehicle definitions -->
    <vType id="leader" accel="3.0" decel="6.0" minGap="1" color="1,0,0" maxSpeed="6" lcStrategic="0" lcCooperative="0" lcSpeedGain="0" lcKeepRight="0" />
    <vType id="follower" accel="3.0" decel="6.0" minGap="0.5" color="0,0,1" maxSpeed="6.1" lcStrategic="0" lcCooperative="0" lcSpeedGain="0" lcKeepRight="0" />
    <vType id="back_intf" accel="3.0" decel="6.0" color="0,1,0" maxSpeed="6.1" lcStrategic="0" lcCooperative="0" lcSpeedGain="0" lcKeepRight="0" />
    <vType id="front_intf" accel="3.0" decel="6.0" minGap="1" color="0,1,0" maxSpeed="6" lcStrategic="0" lcCooperative="0" lcSpeedGain="0" lcKeepRight="0" />
    <vType id="intf" accel="3.0" decel="6.0" minGap="1" color="1,1,0" maxSpeed="5" lcStrategic="0" lcCooperative="0" lcSpeedGain="0" lcKeepRight="0" />
    <!-- Platoon -->
    <vehicle id="0" type="leader" depart="0.00" departLane="first" departSpeed="max">
        <route edges="E5 E7 E8 E9 E12 567060339#3 E4 49217102" />
    </vehicle>
    <vehicle id="1" type="follower" depart="0.00" departLane="first" departSpeed="max">
        <route edges="E5 E7 E8 E9 E12 567060339#3 E4 49217102" />
    </vehicle>
    <vehicle id="2" type="follower" depart="0.00" departLane="first" departSpeed="max">
        <route edges="E5 E7 E8 E9 E12 567060339#3 E4 49217102" />
    </vehicle>
    <vehicle id="3" type="follower" depart="0.00" departLane="first" departSpeed="max">
        <route edges="E5 E7 E8 E9 E12 567060339#3 E4 49217102" />
    </vehicle>
    <vehicle id="4" type="follower" depart="0.00" departLane="first" departSpeed="max">
        <route edges="E5 E7 E8 E9 E12 567060339#3 E4 49217102" />
    </vehicle>
    <!-- Interferentes atras -->
    <vehicle id="5" type="back_intf" depart="0.00" departLane="first" departSpeed="max">
        <route edges="E5 E7 E8 E9 E12 567060339#3 E4 49217102" />
    </vehicle>
    <!-- Interferentes adelante -->
    <!-- Interferentes restantes -->
</routes>
