<?xml version="1.0" encoding="UTF-8"?>

<!-- generated on 2025-05-21 17:32:49 by Eclipse SUMO polyconvert Version v1_22_0+1150-6dafbf6a32a
<polyconvertConfiguration xmlns:xsi="http://www.w3.org/2001/XMLSchema-instance" xsi:noNamespaceSchemaLocation="http://sumo.dlr.de/xsd/polyconvertConfiguration.xsd">

    <input>
        <net-file value="map.net.xml"/>
        <osm-files value="map.osm"/>
    </input>

    <output>
        <output-file value="mapa.poly.xml"/>
    </output>

    <report>
        <verbose value="true"/>
    </report>

</polyconvertConfiguration>
-->

<additional xmlns:xsi="http://www.w3.org/2001/XMLSchema-instance" xsi:noNamespaceSchemaLocation="http://sumo.dlr.de/xsd/additional_file.xsd">
    <location netOffset="-610860.84,-4822110.06" convBoundary="-0.00,-15155.80,39645.06,21151.08" origBoundary="-97.624961,43.400371,-97.136182,43.728669" projParameter="+proj=utm +zone=14 +ellps=WGS84 +datum=WGS84 +units=m +no_defs"/>

    <poly id="1261862469" type="amenity" color="237,199,199" fill="1" layer="-1.00" shape="16898.690590,14043.399761 16902.036401,14030.375637 16924.686149,14036.141327 16921.340084,14049.176548 16898.690590,14043.399761"/>
    <poly id="1261862469#1" type="building" color="255,230,230" fill="1" layer="-1.00" shape="16898.690590,14043.399761 16902.036401,14030.375637 16924.686149,14036.141327 16921.340084,14049.176548 16898.690590,14043.399761"/>
    <poly id="1261862470" type="amenity" color="237,199,199" fill="1" layer="-1.00" shape="16889.270731,14037.053565 16890.671205,14028.758635 16893.830750,14029.285622 16892.430273,14037.580551 16889.270731,14037.053565"/>
    <poly id="1261862470#1" type="building" color="255,230,230" fill="1" layer="-1.00" shape="16889.270731,14037.053565 16890.671205,14028.758635 16893.830750,14029.285622 16892.430273,14037.580551 16889.270731,14037.053565"/>
    <poly id="1261862471" type="amenity" color="237,199,199" fill="1" layer="-1.00" shape="16987.936033,14048.649339 16989.523269,14045.357672 16997.179562,14049.026026 16995.592111,14052.328797 16987.936033,14048.649339"/>
    <poly id="1261862471#1" type="building" color="255,230,230" fill="1" layer="-1.00" shape="16987.936033,14048.649339 16989.523269,14045.357672 16997.179562,14049.026026 16995.592111,14052.328797 16987.936033,14048.649339"/>
    <poly id="1261862472" type="amenity" color="237,199,199" fill="1" layer="-1.00" shape="16964.223413,14045.329624 16965.134503,14038.591918 16971.248415,14039.408724 16970.329044,14046.157382 16964.223413,14045.329624"/>
    <poly id="1261862472#1" type="building" color="255,230,230" fill="1" layer="-1.00" shape="16964.223413,14045.329624 16965.134503,14038.591918 16971.248415,14039.408724 16970.329044,14046.157382 16964.223413,14045.329624"/>
    <poly id="1261862473" type="building" color="255,230,230" fill="1" layer="-1.00" shape="16813.658412,14038.398462 16817.736113,14032.232268 16823.455031,14035.996760 16819.377538,14042.151844 16813.658412,14038.398462"/>
    <poly id="1261862474" type="amenity" color="237,199,199" fill="1" layer="-1.00" shape="16828.392832,14027.869345 16830.323912,14024.728642 16838.105072,14029.465790 16836.173990,14032.606491 16828.392832,14027.869345"/>
    <poly id="1261862474#1" type="building" color="255,230,230" fill="1" layer="-1.00" shape="16828.392832,14027.869345 16830.323912,14024.728642 16838.105072,14029.465790 16836.173990,14032.606491 16828.392832,14027.869345"/>
    <poly id="1261862475" type="amenity" color="237,199,199" fill="1" layer="-1.00" shape="16856.737500,14028.099453 16856.844614,14024.179533 16864.946097,14024.389792 16864.847041,14028.309867 16856.737500,14028.099453"/>
    <poly id="1261862475#1" type="building" color="255,230,230" fill="1" layer="-1.00" shape="16856.737500,14028.099453 16856.844614,14024.179533 16864.946097,14024.389792 16864.847041,14028.309867 16856.737500,14028.099453"/>
    <poly id="1261862476" type="parking" color="184,184,179" fill="1" layer="-1.00" shape="16764.327933,13991.693313 16764.338136,13982.705212 16938.749669,13983.913445 16989.633022,14006.284515 16991.397249,14016.939776 16987.403642,14019.963236 16827.391331,14020.339606 16826.813137,14016.406602 16822.034576,14017.459745 16821.013667,14019.395683 16820.295111,14022.815074 16821.554335,14025.294507 16824.779687,14028.289222 16828.664014,14030.985429 16834.312072,14035.504083 16837.957204,14030.451791 16854.408040,14041.120783 16841.711495,14058.543861 16780.623742,14017.258175 16789.453776,14003.805369 16804.064203,14012.872543 16805.640729,14008.447372 16796.270636,14004.557657 16770.156547,13992.671144 16764.327933,13991.693313"/>
    <poly id="1367190651" type="services" color="237,199,255" fill="1" layer="-2.00" shape="2980.917153,13237.021220 2983.007949,13378.136364 3070.185671,13409.216279 3094.989173,13392.430134 3103.182925,13377.771853 3107.955204,13361.333315 3111.833871,13336.280794 3117.015035,13315.727599 3114.671881,13250.652610 3106.899896,13240.543863 3093.939992,13231.024432 3071.900342,13227.560601 2980.917153,13237.021220"/>
    <poly id="1381252064" type="pipeline" color="255,230,230" fill="0" layer="-1.00" shape="28634.654276,19353.514522 28585.946887,19351.730475 28643.626899,17792.788120 28713.792227,15225.809420 28760.737342,13770.897608 28821.647609,12058.956531 28901.532896,9702.413762 28924.044933,8358.459415 28942.153808,6913.560661 28975.607985,6913.514000 29022.916574,4534.431813 28973.766796,4532.796024 28999.043652,3703.783905 29035.952247,3702.719966 29056.979912,1867.873834 29078.212215,907.893256 29086.984751,132.652103 29102.915851,-2168.693400 29120.417400,-4189.447693 29122.089446,-4204.890367 29126.419665,-4218.255543 29131.350885,-4228.241611 29137.605421,-4236.522391 29147.286249,-4247.765128 29167.660408,-4269.540614 29194.085198,-4290.178983 29221.734473,-4304.747431 29247.532958,-4311.610022 29280.012074,-4314.966747 29312.442400,-4315.979933 29552.399497,-4311.986772 29580.474724,-4314.756208 29599.121483,-4318.411273 29627.796320,-4333.623338 29655.905579,-4353.891461 29675.907158,-4373.995524 29693.327817,-4399.864472 29712.747674,-4440.502472 29725.084530,-4481.632881 29727.172506,-4516.910886 29770.537440,-6153.253336 29842.288961,-8939.261905 29901.401458,-11204.037131 29926.955336,-12087.868095 30126.641238,-12068.541104 31257.825115,-12039.118909 33233.252655,-11986.753223 35179.723446,-11934.435390 36351.964576,-11905.268472 38354.704748,-11860.627025 39513.211944,-11822.613656 39557.917388,-13413.106874 39593.572913,-15089.234176 39595.263155,-15104.363650 39611.336702,-15127.595003 39634.359420,-15155.804893 39645.064332,-15152.632795"/>
    <poly id="215845602" type="water" color="181,209,209" fill="0" layer="-4.00" shape="17635.826215,15550.232509 17633.166524,15532.549079 17634.308191,15525.171453 17639.255870,15512.756170 17641.481238,15493.466737 17646.089618,15484.022541 17651.341576,15478.012742 17656.968868,15474.710006 17669.034323,15470.386672 17676.145516,15464.557073 17681.288090,15456.689746 17681.994282,15449.737062 17679.414188,15435.466056 17674.497647,15408.928620 17672.284141,15390.687121 17669.707095,15383.804640 17662.918015,15372.874750 17653.929682,15358.058372 17648.665998,15349.990990 17638.793695,15343.823804 17632.760498,15338.452597 17628.039248,15331.528925 17621.501592,15315.481993 17619.803057,15299.805824 17619.747214,15280.472552 17617.891855,15250.716420 17618.208972,15241.767485 17622.540941,15231.606890 17645.400496,15200.625849 17658.511764,15179.256913 17678.628129,15157.178277 17684.093783,15147.617257 17685.637899,15133.992188 17686.604248,15128.188886 17687.792674,15125.934090 17692.420715,15122.612161 17698.913881,15118.748354 17703.158483,15113.141415 17709.344406,15103.449827 17713.999812,15098.706299 17720.196996,15095.558999 17724.348717,15094.783337 17731.038991,15095.767512 17740.024401,15096.073658 17747.355420,15093.092627 17754.456441,15087.396227 17757.994521,15081.631293 17758.624080,15071.121794 17762.301448,15050.571513 17762.632426,15040.911776 17759.493664,15033.462938 17749.464721,15020.326332 17747.377630,15010.186777 17747.174748,15006.060893 17748.297371,14999.682860 17752.016107,14991.654863 17757.930674,14966.314564 17759.716330,14962.360257 17766.666838,14956.949841 17777.599230,14952.471543 17788.306980,14945.000226 17804.264749,14931.230320 17813.471997,14927.563278 17825.217914,14925.233920 17832.250771,14923.091632 17837.752684,14919.208871 17842.120882,14914.315460 17844.541520,14907.540227 17845.973597,14892.213127 17847.265915,14869.483767 17841.944193,14842.216243 17840.552667,14832.812226 17835.157329,14824.031108 17828.159884,14816.785737 17810.705915,14804.361664 17796.130445,14797.826015 17788.475686,14795.401092 17780.604724,14796.249605 17766.305997,14797.963308 17758.927820,14795.832612 17753.434135,14791.738287 17746.493761,14781.938699 17742.621148,14775.320158 17741.095198,14765.769148 17738.292675,14740.827826 17738.328057,14731.440170 17735.139336,14711.902217 17735.292477,14703.938965 17737.121673,14690.174956 17737.698949,14675.253605 17739.152877,14666.326539 17742.135225,14659.695400 17746.391027,14653.522061 17759.692877,14644.534001 17773.964268,14637.131191 17790.648536,14630.485900 17802.414191,14627.156921 17810.548547,14626.880128 17814.544288,14627.101450 17819.630112,14629.765832 17830.968967,14641.072278 17837.821436,14648.737050 17841.332464,14651.515577 17846.177364,14652.031024 17850.893404,14651.699599 17858.066377,14649.415587 17864.280500,14645.413224 17879.080762,14640.287349 17884.130927,14637.262537 17888.370624,14631.933368 17891.640358,14625.463369 17902.277440,14591.959032 17904.394612,14585.455735 17904.364281,14579.911029 17903.572906,14576.196006 17902.115670,14570.623824 17901.948632,14564.220980 17902.109910,14548.724988 17905.127838,14517.640468 17905.562853,14487.928354 17904.628950,14476.955455 17902.180162,14470.941986 17897.099589,14467.999885 17890.378549,14468.581552 17885.350069,14470.473515 17881.912933,14470.973977 17872.924116,14470.800934 17867.334164,14472.115468 17862.886475,14473.163121 17856.759632,14472.622993 17851.402439,14469.386731 17849.055166,14465.219573 17847.206342,14457.362227 17845.743497,14444.534824 17845.858282,14438.570717 17846.211623,14434.877735 17848.114992,14432.358962 17852.579379,14430.445004 17855.397582,14424.810691 17854.627685,14420.396131 17853.096680,14418.233456 17843.655685,14412.218762 17833.626102,14406.614953 17828.975290,14403.547852 17821.476089,14393.015271 17818.183811,14385.985666 17816.713049,14380.691011 17817.512613,14376.439981 17821.648114,14368.986666 17825.454808,14356.827304 17830.455786,14348.824014 17833.567006,14343.050895 17833.224366,14331.100562 17830.775667,14325.076016 17827.412194,14321.744820 17822.181016,14319.077646 17818.193153,14318.856478 17812.446863,14320.745797 17806.079249,14325.167461 17791.779869,14341.535824 17787.512947,14348.275559 17786.663991,14355.514354 17786.716224,14359.926209 17785.094754,14362.883729 17781.778117,14364.664265 17775.347272,14364.829436 17757.445771,14360.929781 17732.754836,14352.355446 17729.514661,14350.159937 17728.265017,14347.202750 17728.418987,14339.195077 17727.138463,14320.227141 17727.430339,14313.855356 17734.458767,14289.325304 17737.964268,14277.304542 17739.593479,14266.814276 17747.229456,14253.473028 17765.913548,14225.922902 17778.817125,14210.849776 17787.883437,14203.657940 17793.455230,14201.620804 17803.599359,14202.127043 17810.412928,14200.102700 17824.106015,14191.788889 17835.318989,14184.949512 17845.143300,14169.806142 17850.658585,14155.202041 17852.410907,14144.191974 17851.130525,14130.679243 17849.137170,14122.363594 17843.168707,14112.738189 17834.108513,14103.675484 17827.562545,14092.205758 17824.064743,14082.016837 17822.880813,14063.906245 17823.134248,14050.734128 17824.996436,14033.593202 17828.924866,14021.402852 17837.393978,14012.988543 17846.672511,14010.711679 17873.113075,14011.831615 17906.447200,14022.283826 17957.334375,14032.152092 17965.927103,14033.239763 17974.455005,14037.692665 17983.768202,14049.526942 17993.057828,14062.582931 17997.916721,14065.743030 18012.857164,14073.086039 18020.198767,14075.060733 18043.205644,14078.570599 18070.207420,14082.779742 18079.683831,14085.717824 18084.303466,14085.806887 18100.096639,14080.289504 18109.127931,14074.941746 18117.850593,14069.288066 18121.773763,14057.397747 18126.598048,14046.458088 18126.970527,14027.144165 18126.293598,13982.367031 18120.658231,13923.695080 18119.878835,13916.013828 18118.241499,13905.560636 18108.946092,13892.804348 18094.585499,13871.684231 18084.600384,13862.903340 18073.682064,13854.415569 18067.253570,13852.758410 18055.616076,13849.778707 18040.783609,13837.226898 18031.205122,13823.243123 18029.447411,13818.609522 18029.265164,13812.161944 18029.112236,13804.192798 18028.894461,13799.588872 18025.260887,13796.452369 18020.973255,13795.447585 18017.652043,13792.006013 18014.374198,13786.732052 18013.276509,13779.655763 18011.889987,13771.662851 18012.031643,13764.310458 18013.359799,13759.425225 18016.852436,13753.970621 18027.486810,13744.976068 18039.140728,13730.790372 18051.763209,13714.479043 18060.586879,13703.605305 18070.119815,13688.156630 18085.767230,13674.347967 18093.241292,13669.892319 18117.996390,13662.703382 18149.877729,13653.207670 18180.814381,13644.604941 18188.551509,13641.987698 18195.318200,13642.429339 18200.519275,13643.751839 18208.134182,13647.887425 18239.281372,13660.143375 18256.416833,13665.373830 18269.750723,13675.752863 18285.769357,13690.783495 18291.785004,13697.954794 18296.840106,13707.251874 18297.979117,13712.173586 18301.197594,13720.513037 18314.903538,13743.776395 18322.570031,13761.101251 18327.358004,13767.937784 18337.054392,13775.791296 18344.657266,13780.537891 18357.834723,13783.547846 18362.741084,13784.253708 18378.436620,13784.256969 18388.349988,13780.459856 18395.247023,13774.149051 18401.653316,13761.095817 18403.689169,13751.324604 18409.380236,13743.146167 18422.494148,13733.589062 18430.367385,13723.930682 18433.455006,13707.735725 18435.785155,13694.425964 18434.958666,13668.333683 18431.528362,13618.381312 18431.789614,13604.864905 18428.593166,13572.438291 18428.062680,13560.239840 18430.498089,13543.154550 18427.465778,13531.863247 18421.320964,13513.845504 18418.805925,13505.419596 18413.603597,13497.897259 18407.368371,13494.154749 18393.092081,13491.212372 18379.947999,13479.347967 18371.146680,13470.233999 18366.257148,13466.139771 18356.210970,13461.757059 18352.419292,13460.539440 18348.211201,13460.835915 18343.794799,13461.894992 18338.374934,13465.212338 18331.690753,13465.083245 18324.898124,13460.963405 18320.974785,13456.121248 18318.207875,13451.123657 18312.036393,13434.049907 18311.235509,13426.234892 18311.400855,13417.671912 18313.458905,13410.089869 18315.632494,13406.132071 18320.527746,13400.326940 18323.453975,13387.050883 18324.121892,13382.119622 18322.698505,13366.859680 18321.310559,13359.788840 18320.833734,13354.824363 18321.906352,13348.567660 18324.080735,13344.987636 18334.744248,13336.627393 18352.742582,13324.786820 18366.087536,13316.667295 18372.987480,13315.656206 18376.615886,13315.726300 18379.846105,13316.366449 18391.030160,13321.148927 18398.986868,13324.724687 18418.773254,13329.306786 18425.439328,13330.380001 18436.596806,13336.117546 18442.657117,13338.901194 18446.427504,13341.640586 18451.503300,13346.116227 18454.303008,13349.414605 18453.857919,13352.828029 18451.628293,13359.262339 18451.324432,13364.967251 18453.359119,13368.617488 18456.571606,13370.590589 18462.639392,13372.985535 18466.431103,13374.203216 18474.409612,13376.646222 18479.135817,13379.592991 18489.538346,13384.738288 18491.995993,13386.119067 18498.472686,13387.388684 18503.439519,13387.484730 18508.238614,13386.244279 18515.561510,13382.963868 18528.545314,13373.504420 18541.253310,13358.706628 18551.131292,13341.765341 18561.779943,13325.016744 18569.605113,13305.369250 18572.746005,13281.442480 18574.480642,13270.998854 18577.181354,13259.818407 18577.295458,13253.920947 18576.684171,13245.909571 18575.991871,13242.085280 18569.417906,13236.247302 18553.380953,13225.470982 18548.531943,13219.277528 18547.832863,13216.219733 18547.061101,13206.494243 18547.580689,13199.649127 18549.167165,13196.446664 18553.118061,13189.856800 18564.852080,13175.806824 18577.278674,13165.570052 18580.281797,13158.772987 18585.197300,13121.925737 18591.406569,13107.013396 18601.331318,13097.683756 18606.948242,13093.792675 18616.315361,13083.685642 18620.027334,13069.858264 18619.835458,13059.766231 18610.470515,13040.163870 18604.991640,13026.914145 18604.873994,13013.401522 18612.663606,12996.031030 18620.101320,12986.842162 18633.489555,12966.535771 18642.817923,12948.439580 18651.046349,12928.411105 18657.484462,12901.692802 18659.106821,12887.058370 18658.097809,12860.007031 18651.332633,12844.443616 18645.538451,12837.476295 18636.922804,12828.743357 18619.703135,12819.843922 18581.155383,12797.577071 18567.571562,12788.370361 18560.365731,12785.564462 18534.944444,12776.117752 18504.715278,12767.922550 18495.533582,12758.412239 18487.696284,12739.028504 18488.040752,12731.224503 18491.186612,12716.630609 18499.850459,12703.276663 18513.218915,12694.013458 18531.833781,12689.607012 18546.196382,12688.173757 18566.868057,12686.284822 18593.562327,12679.568306 18611.544361,12668.683538 18629.942969,12656.284742 18650.073558,12642.764027 18666.264420,12635.655625 18673.741313,12634.467107 18717.350004,12632.456064 18729.525113,12625.270047 18737.784735,12613.241815 18744.538041,12599.851159 18748.003678,12578.775035 18758.651869,12552.138364 18773.339513,12513.958396 18784.426083,12484.274869 18788.285532,12462.450880 18788.910479,12460.174229 18791.664503,12455.850057 18798.493670,12448.549463 18803.615939,12440.660277 18804.430029,12438.198414 18804.975187,12429.631683 18803.743486,12424.085905 18802.073584,12421.587020 18791.576040,12411.284192 18776.290661,12391.189176 18771.467018,12383.662819 18764.883909,12368.680582 18762.897026,12362.553552 18765.338525,12354.790177 18768.516447,12348.574315 18773.902647,12337.057091 18779.139429,12323.259327 18781.822483,12313.023000 18785.484786,12291.384070 18788.913644,12272.218257 18791.979947,12262.189347 18796.001734,12251.978962 18800.971261,12241.986930 18810.536255,12231.317322 18820.452102,12222.943284 18827.207699,12219.452181 18847.794368,12212.040495 18858.216562,12207.098354 18864.172700,12205.313916 18873.163319,12204.721578 18878.518131,12204.825388 18892.212723,12207.946290 18896.574483,12209.752986 18900.969620,12209.838207 18904.977662,12209.915925 18911.145882,12207.180139 18917.522515,12203.681776 18922.950467,12199.598386 18925.672247,12197.362410 18925.782958,12191.653766 18926.102080,12185.182540 18928.937501,12176.671343 18932.510290,12170.074342 18937.456371,12165.048336 18941.239646,12157.166605 18944.381349,12144.928230 18952.525443,12136.408907 18971.598746,12125.935068 18987.656803,12121.180232 19003.031097,12114.245619 19009.146233,12098.454060 19024.075430,12077.044993 19050.743952,12049.364186 19067.710486,12035.227689 19080.893578,12028.972887 19116.569150,12023.154904 19133.381218,12016.981793 19147.346546,12007.842472 19154.765239,11999.309288 19165.151424,11987.945035 19175.487500,11978.746370 19185.887995,11966.649131 19196.111686,11963.236884 19204.855885,11961.229155 19216.609691,11954.224651 19224.810489,11942.818010 19235.239194,11929.277025 19244.334507,11909.210489 19247.589346,11891.185861 19247.800070,11880.346105 19243.599619,11872.309329 19235.778019,11864.202168 19229.414050,11855.401165 19228.871051,11845.980016 19229.194211,11829.353875 19227.381925,11810.519681 19222.674513,11791.618109 19214.956962,11777.735540 19203.590344,11765.215324 19192.117211,11757.759447 19166.199222,11747.134226 19151.048721,11742.495712 19140.337456,11733.610363 19128.236487,11721.087131 19121.880514,11712.275289 19116.021567,11677.452334 19114.301549,11579.057761 19115.368432,11524.114888 19120.969122,11497.458477 19132.312555,11473.813430 19156.178835,11441.001042 19162.294856,11425.209618 19161.933985,11406.403660 19171.811892,11383.452387 19172.135078,11366.815152 19171.690082,11352.340651 19164.649740,11341.360057 19155.367528,11333.224654 19152.646426,11323.772331 19150.777620,11307.825817 19157.872452,11279.031908 19158.809111,11268.195155 19151.104999,11253.579671 19129.516479,11206.874144 19121.826243,11191.536789 19113.249710,11184.859522 19101.685195,11182.468456 19090.070566,11182.242982 19082.763436,11184.989864 19078.281623,11191.413610 19066.895932,11217.224472 19057.248508,11227.892172 19047.037806,11230.582740 19038.396940,11226.804156 19032.110383,11214.382872 19024.616248,11188.927798 19016.334172,11167.068353 19008.015962,11146.652581 19000.417681,11126.972969 18993.035549,11095.731559 18988.669280,11058.760102 18988.490300,11030.547145 18989.426694,11019.710377 19003.012244,10993.219883 19007.612289,10980.287643 19007.110846,10968.700805 19001.591910,10954.127917 18998.453175,10928.746273 19000.771245,10921.558321 19008.162856,10914.468786 19024.293822,10906.104440 19029.599742,10894.641380 19031.220138,10885.984429 19030.020783,10872.939688 19027.257263,10865.653157 19018.792241,10853.200755 19008.951670,10836.366379 19004.228579,10818.198031 19006.729158,10801.603055 19014.345177,10782.951878 19025.557301,10766.525902 19040.447027,10747.293684 19044.279302,10736.513111 19047.533978,10718.488417 19047.716286,10709.092498 19043.105456,10685.137751 19039.002186,10672.036672 19036.074210,10649.514502 19041.538926,10604.089831 19044.417185,10573.858543 19054.384421,10543.009288 19058.348441,10535.842179 19063.391320,10532.129140 19068.962529,10530.715113 19079.517363,10528.642291 19084.493872,10528.350004 19094.245537,10528.161508 19098.448185,10528.243077 19110.461202,10529.620631 19116.750665,10530.698221 19119.592282,10531.886651 19121.478170,10533.256517 19121.616140,10536.125697 19121.363468,10539.165061 19120.129414,10543.707508 19119.255728,10549.223562 19119.728624,10554.376890 19122.894463,10558.815873 19128.347506,10563.488140 19133.855743,10565.317203 19138.609093,10566.542758 19143.570483,10567.027955 19146.824932,10566.902267 19149.900666,10566.006488 19153.749312,10564.370207 19158.577151,10562.175197 19164.873393,10562.486342 19169.619924,10564.478410 19174.328619,10568.002992 19180.963943,10570.798374 19186.487046,10571.861146 19191.083676,10571.183804 19202.329652,10563.024950 19204.680373,10560.404099 19209.960629,10554.029264 19210.975989,10551.193596 19212.195433,10547.406392 19211.852687,10545.110976 19209.821852,10541.649498 19205.510834,10537.177115 19203.665523,10533.719243 19203.735854,10530.098594 19205.513133,10527.088847 19209.946489,10525.263966 19215.881979,10524.623759 19221.609932,10525.112794 19225.590156,10527.090014 19232.077472,10537.504357 19235.275749,10539.855257 19239.099267,10539.929548 19245.071867,10537.379086 19246.875790,10533.414367 19248.526178,10526.969027 19248.596534,10523.348378 19247.777842,10516.477304 19246.226278,10507.869866 19243.825498,10493.546252 19240.242569,10481.088451 19239.959686,10476.127682 19240.029820,10472.518140 19240.661891,10469.475040 19242.807325,10467.039090 19247.653608,10463.900108 19251.335367,10461.305136 19253.321173,10457.532830 19254.369287,10452.597924 19250.909378,10443.775635 19249.439739,10440.502819 19247.724634,10430.758935 19246.105631,10425.205569 19245.294471,10417.945777 19244.378996,10415.639231 19241.932100,10414.069552 19239.261311,10413.639903 19235.783623,10415.283346 19231.693153,10419.392522 19229.911952,10422.602175 19226.736239,10428.640128 19224.575397,10431.453540 19222.433843,10433.689583 19218.799980,10433.818976 19214.224960,10432.963477 19203.427572,10427.987342 19197.550375,10425.206670 19194.184098,10421.530382 19193.655805,10419.231363 19193.729796,10415.421908 19194.208805,10410.287063 19195.985446,10397.755626 19197.055742,10391.676765 19199.272025,10386.009030 19202.957688,10383.214117 19206.606032,10382.340594 19210.035103,10382.784959 19213.662173,10383.422051 19218.779672,10385.432465 19226.761569,10387.876287 19230.012439,10387.939445 19235.974163,10385.955393 19240.604887,10383.945485 19242.397108,10380.169415 19243.267025,10374.853289 19241.418014,10371.584214 19237.847127,10368.470564 19236.088971,10363.847778 19236.223404,10356.928564 19234.749588,10349.300365 19233.942750,10343.062824 19234.995792,10336.628098 19235.518388,10333.405103 19238.201696,10326.546521 19240.116091,10323.128359 19245.093122,10317.003195 19248.628944,10313.616539 19250.336387,10308.805549 19250.204607,10303.958821 19249.388713,10298.187742 19248.099845,10293.085212 19247.230430,10290.068491 19245.423271,10287.966830 19238.138009,10282.058947 19234.709633,10279.914680 19232.168590,10279.865313 19226.132844,10280.670223 19220.073668,10283.096813 19215.442545,10283.462380 19209.905961,10282.665983 19207.604164,10281.932423 19200.476652,10279.949643 19194.706343,10279.137608 19190.079533,10279.281067 19177.267682,10284.109738 19164.930235,10287.781046 19154.956147,10289.431716 19151.023091,10289.588671 19144.090178,10289.220747 19123.742188,10288.592408 19117.218940,10291.232290 19111.849249,10293.894568 19104.376685,10297.215995 19102.020438,10299.703450 19099.173903,10303.336878 19098.395234,10307.699288 19098.283578,10313.452342 19097.518274,10317.126163 19093.761962,10319.819767 19088.896724,10320.191987 19085.202150,10320.120289 19079.665586,10319.323999 19074.133546,10318.294482 19071.142534,10317.314275 19062.209019,10312.752303 19059.009802,10310.857004 19052.161807,10306.113301 19045.976302,10302.993473 19024.891859,10292.907255 19022.607163,10291.707452 18997.443255,10288.908430 18980.067454,10290.649142 18967.566718,10291.095610 18956.197143,10292.719517 18946.872087,10296.694051 18937.962285,10302.976512 18920.877700,10313.011418 18897.186869,10318.318619 18888.596841,10319.763182 18884.208530,10319.678152 18870.936402,10312.043665 18858.614083,10303.283229 18840.438376,10286.332143 18834.558116,10279.529760 18826.947236,10266.249807 18823.406937,10246.126888 18821.331901,10234.098533 18819.862098,10226.237205 18819.915653,10223.471742 18822.644056,10213.847383 18825.517358,10208.825556 18829.804841,10202.453423 18831.961814,10198.584322 18832.983292,10193.759952 18833.081379,10188.695489 18833.184198,10183.386688 18834.206430,10178.106804 18838.569658,10167.825267 18841.545600,10157.505752 18841.417817,10152.436914 18841.021352,10148.740568 18837.623977,10144.986099 18835.123110,10142.860009 18828.667710,10141.579500 18821.319344,10138.904009 18818.836320,10135.856105 18817.731781,10133.301534 18819.924469,10127.588787 18819.973722,10125.045450 18814.729734,10120.799705 18808.061767,10118.826253 18796.334706,10115.143840 18789.851646,10115.707167 18783.814859,10116.979098 18779.144415,10118.955222 18771.688938,10121.810712 18765.161170,10124.684169 18758.003167,10123.845656 18748.352859,10120.436845 18741.742911,10115.464764 18734.930175,10108.877753 18727.026171,10099.047606 18723.443766,10092.756439 18723.740249,10089.529040 18727.492759,10086.612947 18727.775705,10084.085244 18726.932890,10079.680312 18724.485262,10074.799909 18716.456557,10071.411416 18711.140375,10071.308552 18706.968756,10071.694476 18700.954296,10071.811429 18691.299588,10068.624828 18686.740435,10064.847965 18682.454440,10059.465378 18680.064993,10051.575191 18679.239758,10046.259552 18678.468016,10038.178450 18678.565982,10033.113989 18681.023890,10025.784208 18683.328208,10014.296156 18685.764524,10007.665916 18690.448550,10004.990030 18697.665657,10002.363153 18702.588892,9999.003057 18705.678297,9994.907527 18708.980047,9991.516064 18712.727346,9989.288708 18717.147247,9987.752105 18721.296355,9988.532345 18727.716459,9991.645282 18738.042685,9996.000413 18744.719822,9997.507328 18752.113072,9997.039342 18761.965011,9991.708141 18775.068027,9986.439887 18782.963794,9983.359599 18790.819145,9982.367300 18796.889966,9984.762474 18804.061804,9989.478833 18812.346048,9995.927747 18820.448603,10002.173166 18825.410427,10002.658118 18833.660515,10001.284648 18839.246729,9999.115196 18845.731726,9989.708038 18848.097118,9986.331836 18851.198882,9984.103163 18855.587413,9984.188166 18862.074693,9985.080447 18869.305654,9986.742651 18889.926791,9987.897663 18901.587480,9987.934720 18908.836840,9987.397456 18912.497759,9982.135383 18915.449227,9974.337493 18917.167767,9960.616064 18918.456999,9950.308333 18917.882607,9927.476347 18914.297741,9915.485371 18906.536014,9895.813918 18901.094829,9874.665307 18900.041200,9863.234468 18899.034798,9849.782443 18896.208178,9837.806172 18895.857019,9829.688746 18898.730195,9825.933532 18902.609746,9822.720010 18906.782103,9817.723382 18908.400016,9812.943910 18908.782884,9806.096185 18912.461430,9800.345592 18916.151929,9793.561962 18915.717287,9789.753768 18912.228435,9786.130822 18907.913996,9785.547252 18903.830279,9785.968096 18901.504709,9787.700707 18896.070709,9792.417355 18889.455453,9792.289190 18880.876067,9788.567640 18879.410282,9785.494984 18879.756651,9780.946413 18884.203632,9774.688501 18887.326698,9770.949234 18891.459697,9767.985044 18894.251022,9768.039123 18900.601579,9768.917674 18906.899737,9772.083965 18911.658300,9775.987051 18915.444698,9777.582552 18918.499126,9777.386199 18921.092761,9775.147708 18921.929653,9771.108614 18919.481608,9766.250354 18919.321805,9761.169785 18923.489045,9756.439717 18926.224295,9748.559867 18928.255136,9736.633276 18924.353090,9721.014151 18919.210764,9707.759740 18915.728446,9701.714845 18907.492224,9693.189095 18898.728488,9681.064464 18887.534021,9670.681536 18878.611765,9666.320060 18868.422467,9666.122688 18851.028859,9665.785800 18837.325855,9660.742939 18822.948518,9659.264609 18817.035404,9654.961483 18811.834967,9644.694748 18807.747451,9638.638197 18796.506334,9630.654381 18790.034332,9623.951719 18785.477052,9611.308715 18784.025172,9593.337266 18788.109200,9568.306750 18