<?xml version="1.0" encoding="UTF-8"?>

<!-- generated on 2025-05-21 20:47:45 by Eclipse SUMO netedit Version v1_22_0+1150-6dafbf6a32a
<neteditConfiguration xmlns:xsi="http://www.w3.org/2001/XMLSchema-instance" xsi:noNamespaceSchemaLocation="http://sumo.dlr.de/xsd/neteditConfiguration.xsd">

    <input>
        <sumo-net-file value="/home/erick/Documentos/ns-3-dev/mapa/highway/map.net.xml"/>
    </input>

    <output>
        <output-file value="/home/erick/Documentos/ns-3-dev/mapa/highway/map.net.xml"/>
        <output.street-names value="true"/>
    </output>

    <processing>
        <geometry.min-radius.fix.railways value="false"/>
        <geometry.max-grade.fix value="false"/>
        <offset.disable-normalization value="true"/>
        <lefthand value="0"/>
    </processing>

    <junctions>
        <no-turnarounds value="true"/>
        <junctions.corner-detail value="5"/>
        <junctions.limit-turn-speed value="5.50"/>
        <rectangular-lane-cut value="0"/>
    </junctions>

    <pedestrian>
        <walkingareas value="0"/>
    </pedestrian>

</neteditConfiguration>
-->

<net version="1.20" junctionCornerDetail="5" limitTurnSpeed="5.50" xmlns:xsi="http://www.w3.org/2001/XMLSchema-instance" xsi:noNamespaceSchemaLocation="http://sumo.dlr.de/xsd/net_file.xsd">

    <location netOffset="-610860.84,-4822110.06" convBoundary="2500.00,13538.00,6500.00,13550.00" origBoundary="-97.624961,43.400398,-97.141396,43.728669" projParameter="+proj=utm +zone=14 +ellps=WGS84 +datum=WGS84 +units=m +no_defs"/>

    <type id="highway.motorway" priority="14" numLanes="2" speed="39.44" allow="private emergency authority army vip passenger hov taxi bus coach delivery truck trailer motorcycle evehicle custom1 custom2" oneway="1"/>

    <edge id=":E2_0" function="internal">
        <lane id=":E2_0_0" index="0" allow="private emergency authority army vip passenger hov taxi bus coach delivery truck trailer motorcycle evehicle custom1 custom2" speed="35.76" length="0.10" shape="3000.00,13534.80 3000.00,13534.80"/>
        <lane id=":E2_0_1" index="1" allow="private emergency authority army vip passenger hov taxi bus coach delivery truck trailer motorcycle evehicle custom1 custom2" speed="35.76" length="0.10" shape="3000.00,13538.00 3000.00,13538.00"/>
        <lane id=":E2_0_2" index="2" allow="private emergency authority army vip passenger hov taxi bus coach delivery truck trailer motorcycle evehicle custom1 custom2" speed="35.76" length="0.10" shape="3000.00,13541.20 3000.00,13541.20"/>
    </edge>
    <edge id=":J10_0" function="internal">
        <lane id=":J10_0_0" index="0" allow="private emergency authority army vip passenger hov taxi bus coach delivery truck trailer motorcycle evehicle custom1 custom2" speed="35.76" length="0.10" shape="3500.00,13534.80 3500.00,13534.80"/>
        <lane id=":J10_0_1" index="1" allow="private emergency authority army vip passenger hov taxi bus coach delivery truck trailer motorcycle evehicle custom1 custom2" speed="35.76" length="0.10" shape="3500.00,13538.00 3500.00,13538.00"/>
        <lane id=":J10_0_2" index="2" allow="private emergency authority army vip passenger hov taxi bus coach delivery truck trailer motorcycle evehicle custom1 custom2" speed="35.76" length="0.10" shape="3500.00,13541.20 3500.00,13541.20"/>
    </edge>
    <edge id=":J11_0" function="internal">
        <lane id=":J11_0_0" index="0" allow="private emergency authority army vip passenger hov taxi bus coach delivery truck trailer motorcycle evehicle custom1 custom2" speed="35.76" length="0.10" shape="4000.00,13534.80 4000.00,13534.80"/>
        <lane id=":J11_0_1" index="1" allow="private emergency authority army vip passenger hov taxi bus coach delivery truck trailer motorcycle evehicle custom1 custom2" speed="35.76" length="0.10" shape="4000.00,13538.00 4000.00,13538.00"/>
        <lane id=":J11_0_2" index="2" allow="private emergency authority army vip passenger hov taxi bus coach delivery truck trailer motorcycle evehicle custom1 custom2" speed="35.76" length="0.10" shape="4000.00,13541.20 4000.00,13541.20"/>
    </edge>
    <edge id=":J12_0" function="internal">
        <lane id=":J12_0_0" index="0" allow="private emergency authority army vip passenger hov taxi bus coach delivery truck trailer motorcycle evehicle custom1 custom2" speed="35.76" length="0.10" shape="4500.00,13534.80 4500.00,13534.80"/>
        <lane id=":J12_0_1" index="1" allow="private emergency authority army vip passenger hov taxi bus coach delivery truck trailer motorcycle evehicle custom1 custom2" speed="35.76" length="0.10" shape="4500.00,13538.00 4500.00,13538.00"/>
        <lane id=":J12_0_2" index="2" allow="private emergency authority army vip passenger hov taxi bus coach delivery truck trailer motorcycle evehicle custom1 custom2" speed="35.76" length="0.10" shape="4500.00,13541.20 4500.00,13541.20"/>
    </edge>
    <edge id=":J13_0" function="internal">
        <lane id=":J13_0_0" index="0" allow="private emergency authority army vip passenger hov taxi bus coach delivery truck trailer motorcycle evehicle custom1 custom2" speed="35.76" length="0.10" shape="5000.00,13534.80 5000.00,13534.80"/>
        <lane id=":J13_0_1" index="1" allow="private emergency authority army vip passenger hov taxi bus coach delivery truck trailer motorcycle evehicle custom1 custom2" speed="35.76" length="0.10" shape="5000.00,13538.00 5000.00,13538.00"/>
        <lane id=":J13_0_2" index="2" allow="private emergency authority army vip passenger hov taxi bus coach delivery truck trailer motorcycle evehicle custom1 custom2" speed="35.76" length="0.10" shape="5000.00,13541.20 5000.00,13541.20"/>
    </edge>
    <edge id=":J14_0" function="internal">
        <lane id=":J14_0_0" index="0" allow="private emergency authority army vip passenger hov taxi bus coach delivery truck trailer motorcycle evehicle custom1 custom2" speed="35.76" length="0.10" shape="5500.00,13534.80 5500.00,13534.80"/>
        <lane id=":J14_0_1" index="1" allow="private emergency authority army vip passenger hov taxi bus coach delivery truck trailer motorcycle evehicle custom1 custom2" speed="35.76" length="0.10" shape="5500.00,13538.00 5500.00,13538.00"/>
        <lane id=":J14_0_2" index="2" allow="private emergency authority army vip passenger hov taxi bus coach delivery truck trailer motorcycle evehicle custom1 custom2" speed="35.76" length="0.10" shape="5500.00,13541.20 5500.00,13541.20"/>
    </edge>
    <edge id=":J15_0" function="internal">
        <lane id=":J15_0_0" index="0" allow="private emergency authority army vip passenger hov taxi bus coach delivery truck trailer motorcycle evehicle custom1 custom2" speed="35.76" length="0.10" shape="6000.00,13534.80 6000.00,13534.80"/>
        <lane id=":J15_0_1" index="1" allow="private emergency authority army vip passenger hov taxi bus coach delivery truck trailer motorcycle evehicle custom1 custom2" speed="35.76" length="0.10" shape="6000.00,13538.00 6000.00,13538.00"/>
        <lane id=":J15_0_2" index="2" allow="private emergency authority army vip passenger hov taxi bus coach delivery truck trailer motorcycle evehicle custom1 custom2" speed="35.76" length="0.10" shape="6000.00,13541.20 6000.00,13541.20"/>
    </edge>
    <edge id=":J19_0" function="internal">
        <lane id=":J19_0_0" index="0" allow="private emergency authority army vip passenger hov taxi bus coach delivery truck trailer motorcycle evehicle custom1 custom2" speed="35.76" length="0.10" shape="6000.00,13553.20 6000.00,13553.20"/>
        <lane id=":J19_0_1" index="1" allow="private emergency authority army vip passenger hov taxi bus coach delivery truck trailer motorcycle evehicle custom1 custom2" speed="35.76" length="0.10" shape="6000.00,13550.00 6000.00,13550.00"/>
        <lane id=":J19_0_2" index="2" allow="private emergency authority army vip passenger hov taxi bus coach delivery truck trailer motorcycle evehicle custom1 custom2" speed="35.76" length="0.10" shape="6000.00,13546.80 6000.00,13546.80"/>
    </edge>
    <edge id=":J20_0" function="internal">
        <lane id=":J20_0_0" index="0" allow="private emergency authority army vip passenger hov taxi bus coach delivery truck trailer motorcycle evehicle custom1 custom2" speed="35.76" length="0.10" shape="5500.00,13553.20 5500.00,13553.20"/>
        <lane id=":J20_0_1" index="1" allow="private emergency authority army vip passenger hov taxi bus coach delivery truck trailer motorcycle evehicle custom1 custom2" speed="35.76" length="0.10" shape="5500.00,13550.00 5500.00,13550.00"/>
        <lane id=":J20_0_2" index="2" allow="private emergency authority army vip passenger hov taxi bus coach delivery truck trailer motorcycle evehicle custom1 custom2" speed="35.76" length="0.10" shape="5500.00,13546.80 5500.00,13546.80"/>
    </edge>
    <edge id=":J21_0" function="internal">
        <lane id=":J21_0_0" index="0" allow="private emergency authority army vip passenger hov taxi bus coach delivery truck trailer motorcycle evehicle custom1 custom2" speed="35.76" length="0.10" shape="5000.00,13553.20 5000.00,13553.20"/>
        <lane id=":J21_0_1" index="1" allow="private emergency authority army vip passenger hov taxi bus coach delivery truck trailer motorcycle evehicle custom1 custom2" speed="35.76" length="0.10" shape="5000.00,13550.00 5000.00,13550.00"/>
        <lane id=":J21_0_2" index="2" allow="private emergency authority army vip passenger hov taxi bus coach delivery truck trailer motorcycle evehicle custom1 custom2" speed="35.76" length="0.10" shape="5000.00,13546.80 5000.00,13546.80"/>
    </edge>
    <edge id=":J22_0" function="internal">
        <lane id=":J22_0_0" index="0" allow="private emergency authority army vip passenger hov taxi bus coach delivery truck trailer motorcycle evehicle custom1 custom2" speed="35.76" length="0.10" shape="4500.00,13553.20 4500.00,13553.20"/>
        <lane id=":J22_0_1" index="1" allow="private emergency authority army vip passenger hov taxi bus coach delivery truck trailer motorcycle evehicle custom1 custom2" speed="35.76" length="0.10" shape="4500.00,13550.00 4500.00,13550.00"/>
        <lane id=":J22_0_2" index="2" allow="private emergency authority army vip passenger hov taxi bus coach delivery truck trailer motorcycle evehicle custom1 custom2" speed="35.76" length="0.10" shape="4500.00,13546.80 4500.00,13546.80"/>
    </edge>
    <edge id=":J23_0" function="internal">
        <lane id=":J23_0_0" index="0" allow="private emergency authority army vip passenger hov taxi bus coach delivery truck trailer motorcycle evehicle custom1 custom2" speed="35.76" length="0.10" shape="4000.00,13553.20 4000.00,13553.20"/>
        <lane id=":J23_0_1" index="1" allow="private emergency authority army vip passenger hov taxi bus coach delivery truck trailer motorcycle evehicle custom1 custom2" speed="35.76" length="0.10" shape="4000.00,13550.00 4000.00,13550.00"/>
        <lane id=":J23_0_2" index="2" allow="private emergency authority army vip passenger hov taxi bus coach delivery truck trailer motorcycle evehicle custom1 custom2" speed="35.76" length="0.10" shape="4000.00,13546.80 4000.00,13546.80"/>
    </edge>
    <edge id=":J24_0" function="internal">
        <lane id=":J24_0_0" index="0" allow="private emergency authority army vip passenger hov taxi bus coach delivery truck trailer motorcycle evehicle custom1 custom2" speed="35.76" length="0.10" shape="3500.00,13553.20 3500.00,13553.20"/>
        <lane id=":J24_0_1" index="1" allow="private emergency authority army vip passenger hov taxi bus coach delivery truck trailer motorcycle evehicle custom1 custom2" speed="35.76" length="0.10" shape="3500.00,13550.00 3500.00,13550.00"/>
        <lane id=":J24_0_2" index="2" allow="private emergency authority army vip passenger hov taxi bus coach delivery truck trailer motorcycle evehicle custom1 custom2" speed="35.76" length="0.10" shape="3500.00,13546.80 3500.00,13546.80"/>
    </edge>
    <edge id=":J25_0" function="internal">
        <lane id=":J25_0_0" index="0" allow="private emergency authority army vip passenger hov taxi bus coach delivery truck trailer motorcycle evehicle custom1 custom2" speed="35.76" length="0.10" shape="3000.00,13553.20 3000.00,13553.20"/>
        <lane id=":J25_0_1" index="1" allow="private emergency authority army vip passenger hov taxi bus coach delivery truck trailer motorcycle evehicle custom1 custom2" speed="35.76" length="0.10" shape="3000.00,13550.00 3000.00,13550.00"/>
        <lane id=":J25_0_2" index="2" allow="private emergency authority army vip passenger hov taxi bus coach delivery truck trailer motorcycle evehicle custom1 custom2" speed="35.76" length="0.10" shape="3000.00,13546.80 3000.00,13546.80"/>
    </edge>

    <edge id="R1" from="E1" to="E2" priority="14" type="highway.motorway" spreadType="center" shape="2500.00,13538.00 3000.00,13538.00">
        <lane id="R1_0" index="0" allow="private emergency authority army vip passenger hov taxi bus coach delivery truck trailer motorcycle evehicle custom1 custom2" speed="35.76" length="500.00" acceleration="1" shape="2500.00,13534.80 3000.00,13534.80"/>
        <lane id="R1_1" index="1" allow="private emergency authority army vip passenger hov taxi bus coach delivery truck trailer motorcycle evehicle custom1 custom2" speed="35.76" length="500.00" shape="2500.00,13538.00 3000.00,13538.00"/>
        <lane id="R1_2" index="2" allow="private emergency authority army vip passenger hov taxi bus coach delivery truck trailer motorcycle evehicle custom1 custom2" speed="35.76" length="500.00" shape="2500.00,13541.20 3000.00,13541.20"/>
        <param key="ref" value="I 90"/>
    </edge>
    <edge id="R2" from="E2" to="J10" priority="14" type="highway.motorway" spreadType="center">
        <lane id="R2_0" index="0" allow="private emergency authority army vip passenger hov taxi bus coach delivery truck trailer motorcycle evehicle custom1 custom2" speed="35.76" length="500.00" acceleration="1" shape="3000.00,13534.80 3500.00,13534.80"/>
        <lane id="R2_1" index="1" allow="private emergency authority army vip passenger hov taxi bus coach delivery truck trailer motorcycle evehicle custom1 custom2" speed="35.76" length="500.00" shape="3000.00,13538.00 3500.00,13538.00"/>
        <lane id="R2_2" index="2" allow="private emergency authority army vip passenger hov taxi bus coach delivery truck trailer motorcycle evehicle custom1 custom2" speed="35.76" length="500.00" shape="3000.00,13541.20 3500.00,13541.20"/>
        <param key="ref" value="I 90"/>
    </edge>
    <edge id="R3" from="J10" to="J11" priority="14" type="highway.motorway" spreadType="center">
        <lane id="R3_0" index="0" allow="private emergency authority army vip passenger hov taxi bus coach delivery truck trailer motorcycle evehicle custom1 custom2" speed="35.76" length="500.00" acceleration="1" shape="3500.00,13534.80 4000.00,13534.80"/>
        <lane id="R3_1" index="1" allow="private emergency authority army vip passenger hov taxi bus coach delivery truck trailer motorcycle evehicle custom1 custom2" speed="35.76" length="500.00" shape="3500.00,13538.00 4000.00,13538.00"/>
        <lane id="R3_2" index="2" allow="private emergency authority army vip passenger hov taxi bus coach delivery truck trailer motorcycle evehicle custom1 custom2" speed="35.76" length="500.00" shape="3500.00,13541.20 4000.00,13541.20"/>
        <param key="ref" value="I 90"/>
    </edge>
    <edge id="R4" from="J11" to="J12" priority="14" type="highway.motorway" spreadType="center">
        <lane id="R4_0" index="0" allow="private emergency authority army vip passenger hov taxi bus coach delivery truck trailer motorcycle evehicle custom1 custom2" speed="35.76" length="500.00" acceleration="1" shape="4000.00,13534.80 4500.00,13534.80"/>
        <lane id="R4_1" index="1" allow="private emergency authority army vip passenger hov taxi bus coach delivery truck trailer motorcycle evehicle custom1 custom2" speed="35.76" length="500.00" shape="4000.00,13538.00 4500.00,13538.00"/>
        <lane id="R4_2" index="2" allow="private emergency authority army vip passenger hov taxi bus coach delivery truck trailer motorcycle evehicle custom1 custom2" speed="35.76" length="500.00" shape="4000.00,13541.20 4500.00,13541.20"/>
        <param key="ref" value="I 90"/>
    </edge>
    <edge id="R5" from="J12" to="J13" priority="14" type="highway.motorway" spreadType="center">
        <lane id="R5_0" index="0" allow="private emergency authority army vip passenger hov taxi bus coach delivery truck trailer motorcycle evehicle custom1 custom2" speed="35.76" length="500.00" acceleration="1" shape="4500.00,13534.80 5000.00,13534.80"/>
        <lane id="R5_1" index="1" allow="private emergency authority army vip passenger hov taxi bus coach delivery truck trailer motorcycle evehicle custom1 custom2" speed="35.76" length="500.00" shape="4500.00,13538.00 5000.00,13538.00"/>
        <lane id="R5_2" index="2" allow="private emergency authority army vip passenger hov taxi bus coach delivery truck trailer motorcycle evehicle custom1 custom2" speed="35.76" length="500.00" shape="4500.00,13541.20 5000.00,13541.20"/>
        <param key="ref" value="I 90"/>
    </edge>
    <edge id="R6" from="J13" to="J14" priority="14" type="highway.motorway" spreadType="center">
        <lane id="R6_0" index="0" allow="private emergency authority army vip passenger hov taxi bus coach delivery truck trailer motorcycle evehicle custom1 custom2" speed="35.76" length="500.00" acceleration="1" shape="5000.00,13534.80 5500.00,13534.80"/>
        <lane id="R6_1" index="1" allow="private emergency authority army vip passenger hov taxi bus coach delivery truck trailer motorcycle evehicle custom1 custom2" speed="35.76" length="500.00" shape="5000.00,13538.00 5500.00,13538.00"/>
        <lane id="R6_2" index="2" allow="private emergency authority army vip passenger hov taxi bus coach delivery truck trailer motorcycle evehicle custom1 custom2" speed="35.76" length="500.00" shape="5000.00,13541.20 5500.00,13541.20"/>
        <param key="ref" value="I 90"/>
    </edge>
    <edge id="R7" from="J14" to="J15" priority="14" type="highway.motorway" spreadType="center">
        <lane id="R7_0" index="0" allow="private emergency authority army vip passenger hov taxi bus coach delivery truck trailer motorcycle evehicle custom1 custom2" speed="35.76" length="500.00" acceleration="1" shape="5500.00,13534.80 6000.00,13534.80"/>
        <lane id="R7_1" index="1" allow="private emergency authority army vip passenger hov taxi bus coach delivery truck trailer motorcycle evehicle custom1 custom2" speed="35.76" length="500.00" shape="5500.00,13538.00 6000.00,13538.00"/>
        <lane id="R7_2" index="2" allow="private emergency authority army vip passenger hov taxi bus coach delivery truck trailer motorcycle evehicle custom1 custom2" speed="35.76" length="500.00" shape="5500.00,13541.20 6000.00,13541.20"/>
        <param key="ref" value="I 90"/>
    </edge>
    <edge id="R8" from="J15" to="J16" priority="14" type="highway.motorway" spreadType="center">
        <lane id="R8_0" index="0" allow="private emergency authority army vip passenger hov taxi bus coach delivery truck trailer motorcycle evehicle custom1 custom2" speed="35.76" length="500.00" acceleration="1" shape="6000.00,13534.80 6500.00,13534.80"/>
        <lane id="R8_1" index="1" allow="private emergency authority army vip passenger hov taxi bus coach delivery truck trailer motorcycle evehicle custom1 custom2" speed="35.76" length="500.00" shape="6000.00,13538.00 6500.00,13538.00"/>
        <lane id="R8_2" index="2" allow="private emergency authority army vip passenger hov taxi bus coach delivery truck trailer motorcycle evehicle custom1 custom2" speed="35.76" length="500.00" shape="6000.00,13541.20 6500.00,13541.20"/>
        <param key="ref" value="I 90"/>
    </edge>
    <edge id="T1" from="J18" to="J19" priority="14" type="highway.motorway" spreadType="center">
        <lane id="T1_0" index="0" allow="private emergency authority army vip passenger hov taxi bus coach delivery truck trailer motorcycle evehicle custom1 custom2" speed="35.76" length="500.00" acceleration="1" shape="6500.00,13553.20 6000.00,13553.20"/>
        <lane id="T1_1" index="1" allow="private emergency authority army vip passenger hov taxi bus coach delivery truck trailer motorcycle evehicle custom1 custom2" speed="35.76" length="500.00" shape="6500.00,13550.00 6000.00,13550.00"/>
        <lane id="T1_2" index="2" allow="private emergency authority army vip passenger hov taxi bus coach delivery truck trailer motorcycle evehicle custom1 custom2" speed="35.76" length="500.00" shape="6500.00,13546.80 6000.00,13546.80"/>
        <param key="ref" value="I 90"/>
    </edge>
    <edge id="T2" from="J19" to="J20" priority="14" type="highway.motorway" spreadType="center">
        <lane id="T2_0" index="0" allow="private emergency authority army vip passenger hov taxi bus coach delivery truck trailer motorcycle evehicle custom1 custom2" speed="35.76" length="500.00" acceleration="1" shape="6000.00,13553.20 5500.00,13553.20"/>
        <lane id="T2_1" index="1" allow="private emergency authority army vip passenger hov taxi bus coach delivery truck trailer motorcycle evehicle custom1 custom2" speed="35.76" length="500.00" shape="6000.00,13550.00 5500.00,13550.00"/>
        <lane id="T2_2" index="2" allow="private emergency authority army vip passenger hov taxi bus coach delivery truck trailer motorcycle evehicle custom1 custom2" speed="35.76" length="500.00" shape="6000.00,13546.80 5500.00,13546.80"/>
        <param key="ref" value="I 90"/>
    </edge>
    <edge id="T3" from="J20" to="J21" priority="14" type="highway.motorway" spreadType="center">
        <lane id="T3_0" index="0" allow="private emergency authority army vip passenger hov taxi bus coach delivery truck trailer motorcycle evehicle custom1 custom2" speed="35.76" length="500.00" acceleration="1" shape="5500.00,13553.20 5000.00,13553.20"/>
        <lane id="T3_1" index="1" allow="private emergency authority army vip passenger hov taxi bus coach delivery truck trailer motorcycle evehicle custom1 custom2" speed="35.76" length="500.00" shape="5500.00,13550.00 5000.00,13550.00"/>
        <lane id="T3_2" index="2" allow="private emergency authority army vip passenger hov taxi bus coach delivery truck trailer motorcycle evehicle custom1 custom2" speed="35.76" length="500.00" shape="5500.00,13546.80 5000.00,13546.80"/>
        <param key="ref" value="I 90"/>
    </edge>
    <edge id="T4" from="J21" to="J22" priority="14" type="highway.motorway" spreadType="center">
        <lane id="T4_0" index="0" allow="private emergency authority army vip passenger hov taxi bus coach delivery truck trailer motorcycle evehicle custom1 custom2" speed="35.76" length="500.00" acceleration="1" shape="5000.00,13553.20 4500.00,13553.20"/>
        <lane id="T4_1" index="1" allow="private emergency authority army vip passenger hov taxi bus coach delivery truck trailer motorcycle evehicle custom1 custom2" speed="35.76" length="500.00" shape="5000.00,13550.00 4500.00,13550.00"/>
        <lane id="T4_2" index="2" allow="private emergency authority army vip passenger hov taxi bus coach delivery truck trailer motorcycle evehicle custom1 custom2" speed="35.76" length="500.00" shape="5000.00,13546.80 4500.00,13546.80"/>
        <param key="ref" value="I 90"/>
    </edge>
    <edge id="T5" from="J22" to="J23" priority="14" type="highway.motorway" spreadType="center">
        <lane id="T5_0" index="0" allow="private emergency authority army vip passenger hov taxi bus coach delivery truck trailer motorcycle evehicle custom1 custom2" speed="35.76" length="500.00" acceleration="1" shape="4500.00,13553.20 4000.00,13553.20"/>
        <lane id="T5_1" index="1" allow="private emergency authority army vip passenger hov taxi bus coach delivery truck trailer motorcycle evehicle custom1 custom2" speed="35.76" length="500.00" shape="4500.00,13550.00 4000.00,13550.00"/>
        <lane id="T5_2" index="2" allow="private emergency authority army vip passenger hov taxi bus coach delivery truck trailer motorcycle evehicle custom1 custom2" speed="35.76" length="500.00" shape="4500.00,13546.80 4000.00,13546.80"/>
        <param key="ref" value="I 90"/>
    </edge>
    <edge id="T6" from="J23" to="J24" priority="14" type="highway.motorway" spreadType="center">
        <lane id="T6_0" index="0" allow="private emergency authority army vip passenger hov taxi bus coach delivery truck trailer motorcycle evehicle custom1 custom2" speed="35.76" length="500.00" acceleration="1" shape="4000.00,13553.20 3500.00,13553.20"/>
        <lane id="T6_1" index="1" allow="private emergency authority army vip passenger hov taxi bus coach delivery truck trailer motorcycle evehicle custom1 custom2" speed="35.76" length="500.00" shape="4000.00,13550.00 3500.00,13550.00"/>
        <lane id="T6_2" index="2" allow="private emergency authority army vip passenger hov taxi bus coach delivery truck trailer motorcycle evehicle custom1 custom2" speed="35.76" length="500.00" shape="4000.00,13546.80 3500.00,13546.80"/>
        <param key="ref" value="I 90"/>
    </edge>
    <edge id="T7" from="J24" to="J25" priority="14" type="highway.motorway" spreadType="center">
        <lane id="T7_0" index="0" allow="private emergency authority army vip passenger hov taxi bus coach delivery truck trailer motorcycle evehicle custom1 custom2" speed="35.76" length="500.00" acceleration="1" shape="3500.00,13553.20 3000.00,13553.20"/>
        <lane id="T7_1" index="1" allow="private emergency authority army vip passenger hov taxi bus coach delivery truck trailer motorcycle evehicle custom1 custom2" speed="35.76" length="500.00" shape="3500.00,13550.00 3000.00,13550.00"/>
        <lane id="T7_2" index="2" allow="private emergency authority army vip passenger hov taxi bus coach delivery truck trailer motorcycle evehicle custom1 custom2" speed="35.76" length="500.00" shape="3500.00,13546.80 3000.00,13546.80"/>
        <param key="ref" value="I 90"/>
    </edge>
    <edge id="T8" from="J25" to="J26" priority="14" type="highway.motorway" spreadType="center">
        <lane id="T8_0" index="0" allow="private emergency authority army vip passenger hov taxi bus coach delivery truck trailer motorcycle evehicle custom1 custom2" speed="35.76" length="500.00" acceleration="1" shape="3000.00,13553.20 2500.00,13553.20"/>
        <lane id="T8_1" index="1" allow="private emergency authority army vip passenger hov taxi bus coach delivery truck trailer motorcycle evehicle custom1 custom2" speed="35.76" length="500.00" shape="3000.00,13550.00 2500.00,13550.00"/>
        <lane id="T8_2" index="2" allow="private emergency authority army vip passenger hov taxi bus coach delivery truck trailer motorcycle evehicle custom1 custom2" speed="35.76" length="500.00" shape="3000.00,13546.80 2500.00,13546.80"/>
        <param key="ref" value="I 90"/>
    </edge>

    <junction id="E1" type="dead_end" x="2500.00" y="13538.88" incLanes="" intLanes="" shape="2500.00,13542.80 2500.00,13533.20"/>
    <junction id="E2" type="priority" x="3000.00" y="13538.00" incLanes="R1_0 R1_1 R1_2" intLanes=":E2_0_0 :E2_0_1 :E2_0_2" shape="3000.00,13542.80 3000.00,13533.20 3000.00,13542.80">
        <request index="0" response="000" foes="000" cont="0"/>
        <request index="1" response="000" foes="000" cont="0"/>
        <request index="2" response="000" foes="000" cont="0"/>
    </junction>
    <junction id="J10" type="priority" x="3500.00" y="13538.00" incLanes="R2_0 R2_1 R2_2" intLanes=":J10_0_0 :J10_0_1 :J10_0_2" shape="3500.00,13542.80 3500.00,13533.20 3500.00,13542.80">
        <request index="0" response="000" foes="000" cont="0"/>
        <request index="1" response="000" foes="000" cont="0"/>
        <request index="2" response="000" foes="000" cont="0"/>
    </junction>
    <junction id="J11" type="priority" x="4000.00" y="13538.00" incLanes="R3_0 R3_1 R3_2" intLanes=":J11_0_0 :J11_0_1 :J11_0_2" shape="4000.00,13542.80 4000.00,13533.20 4000.00,13542.80">
        <request index="0" response="000" foes="000" cont="0"/>
        <request index="1" response="000" foes="000" cont="0"/>
        <request index="2" response="000" foes="000" cont="0"/>
    </junction>
    <junction id="J12" type="priority" x="4500.00" y="13538.00" incLanes="R4_0 R4_1 R4_2" intLanes=":J12_0_0 :J12_0_1 :J12_0_2" shape="4500.00,13542.80 4500.00,13533.20 4500.00,13542.80">
        <request index="0" response="000" foes="000" cont="0"/>
        <request index="1" response="000" foes="000" cont="0"/>
        <request index="2" response="000" foes="000" cont="0"/>
    </junction>
    <junction id="J13" type="priority" x="5000.00" y="13538.00" incLanes="R5_0 R5_1 R5_2" intLanes=":J13_0_0 :J13_0_1 :J13_0_2" shape="5000.00,13542.80 5000.00,13533.20 5000.00,13542.80">
        <request index="0" response="000" foes="000" cont="0"/>
        <request index="1" response="000" foes="000" cont="0"/>
        <request index="2" response="000" foes="000" cont="0"/>
    </junction>
    <junction id="J14" type="priority" x="5500.00" y="13538.00" incLanes="R6_0 R6_1 R6_2" intLanes=":J14_0_0 :J14_0_1 :J14_0_2" shape="5500.00,13542.80 5500.00,13533.20 5500.00,13542.80">
        <request index="0" response="000" foes="000" cont="0"/>
        <request index="1" response="000" foes="000" cont="0"/>
        <request index="2" response="000" foes="000" cont="0"/>
    </junction>
    <junction id="J15" type="priority" x="6000.00" y="13538.00" incLanes="R7_0 R7_1 R7_2" intLanes=":J15_0_0 :J15_0_1 :J15_0_2" shape="6000.00,13542.80 6000.00,13533.20 6000.00,13542.80">
        <request index="0" response="000" foes="000" cont="0"/>
        <request index="1" response="000" foes="000" cont="0"/>
        <request index="2" response="000" foes="000" cont="0"/>
    </junction>