<?xml version="1.0" encoding="UTF-8"?>
<routes>
    <!-- Vehicle definitions -->
    <vType id="leader" accel="3.0" decel="6.0" minGap="1" color="1,0,0" maxSpeed="19" lcStrategic="0" lcCooperative="0" lcSpeedGain="0" lcKeepRight="0" />
    <vType id="follower" accel="3.0" decel="6.0" minGap="0.5" color="0,0,1" maxSpeed="19.1" lcStrategic="0" lcCooperative="0" lcSpeedGain="0" lcKeepRight="0" />
    <vType id="back_intf" accel="3.0" decel="6.0" color="0,1,0" maxSpeed="19.1" speedFactor="1.0" speedDev="0.1" />
    <vType id="front_intf" accel="3.0" decel="6.0" minGap="1" color="0,1,0" maxSpeed="19" speedFactor="1.0" speedDev="0.1" />
    <vType id="intf" accel="3.0" decel="6.0" minGap="1" color="1,1,0" maxSpeed="15" speedFactor="1.0" speedDev="0.1" />
    <!-- Platoon -->
    <vehicle id="0" type="leader" depart="0.00" departLane="first" departSpeed="0">
        <route edges="R1 R2 R3 R4 R5 R6 R7 R8" />
    </vehicle>
    <vehicle id="1" type="follower" depart="0.00" departLane="first" departSpeed="0">
        <route edges="R1 R2 R3 R4 R5 R6 R7 R8" />
    </vehicle>
    <vehicle id="2" type="follower" depart="0.00" departLane="first" departSpeed="0">
        <route edges="R1 R2 R3 R4 R5 R6 R7 R8" />
    </vehicle>
    <vehicle id="3" type="follower" depart="0.00" departLane="first" departSpeed="0">
        <route edges="R1 R2 R3 R4 R5 R6 R7 R8" />
    </vehicle>
    <!-- Interferentes atras -->
    <vehicle id="4" type="back_intf" depart="0.00" departLane="best" departSpeed="0">
        <route edges="R1 R2 R3 R4 R5 R6 R7 R8" />
    </vehicle>
    <vehicle id="5" type="back_intf" depart="0.00" departLane="best" departSpeed="0">
        <route edges="R1 R2 R3 R4 R5 R6 R7 R8" />
    </vehicle>
    <vehicle id="6" type="back_intf" depart="0.00" departLane="best" departSpeed="0">
        <route edges="R1 R2 R3 R4 R5 R6 R7 R8" />
    </vehicle>
    <vehicle id="7" type="back_intf" depart="0.00" departLane="best" departSpeed="0">
        <route edges="R1 R2 R3 R4 R5 R6 R7 R8" />
    </vehicle>
    <vehicle id="8" type="back_intf" depart="0.00" departLane="best" departSpeed="0">
        <route edges="R1 R2 R3 R4 R5 R6 R7 R8" />
    </vehicle>
    <vehicle id="9" type="back_intf" depart="0.00" departLane="best" departSpeed="0">
        <route edges="R1 R2 R3 R4 R5 R6 R7 R8" />
    </vehicle>
    <vehicle id="10" type="back_intf" depart="0.00" departLane="best" departSpeed="0">
        <route edges="R1 R2 R3 R4 R5 R6 R7 R8" />
    </vehicle>
    <vehicle id="11" type="back_intf" depart="0.00" departLane="best" departSpeed="0">
        <route edges="R1 R2 R3 R4 R5 R6 R7 R8" />
    </vehicle>
    <vehicle id="12" type="back_intf" depart="0.00" departLane="best" departSpeed="0">
        <route edges="R1 R2 R3 R4 R5 R6 R7 R8" />
    </vehicle>
    <vehicle id="13" type="back_intf" depart="0.00" departLane="best" departSpeed="0">
        <route edges="R1 R2 R3 R4 R5 R6 R7 R8" />
    </vehicle>
    <vehicle id="14" type="back_intf" depart="0.00" departLane="best" departSpeed="0">
        <route edges="R1 R2 R3 R4 R5 R6 R7 R8" />
    </vehicle>
    <vehicle id="15" type="back_intf" depart="0.00" departLane="best" departSpeed="0">
        <route edges="R1 R2 R3 R4 R5 R6 R7 R8" />
    </vehicle>
    <vehicle id="16" type="back_intf" depart="0.00" departLane="best" departSpeed="0">
        <route edges="R1 R2 R3 R4 R5 R6 R7 R8" />
    </vehicle>
    <vehicle id="17" type="back_intf" depart="0.00" departLane="best" departSpeed="0">
        <route edges="R1 R2 R3 R4 R5 R6 R7 R8" />
    </vehicle>
    <vehicle id="18" type="back_intf" depart="0.00" departLane="best" departSpeed="0">
        <route edges="R1 R2 R3 R4 R5 R6 R7 R8" />
    </vehicle>
    <vehicle id="19" type="back_intf" depart="0.00" departLane="best" departSpeed="0">
        <route edges="R1 R2 R3 R4 R5 R6 R7 R8" />
    </vehicle>
    <vehicle id="20" type="back_intf" depart="0.00" departLane="best" departSpeed="0">
        <route edges="R1 R2 R3 R4 R5 R6 R7 R8" />
    </vehicle>
    <vehicle id="21" type="back_intf" depart="0.00" departLane="best" departSpeed="0">
        <route edges="R1 R2 R3 R4 R5 R6 R7 R8" />
    </vehicle>
    <vehicle id="22" type="back_intf" depart="0.00" departLane="best" departSpeed="0">
        <route edges="R1 R2 R3 R4 R5 R6 R7 R8" />
    </vehicle>
    <vehicle id="23" type="back_intf" depart="0.00" departLane="best" departSpeed="0">
        <route edges="R1 R2 R3 R4 R5 R6 R7 R8" />
    </vehicle>
    <vehicle id="24" type="back_intf" depart="0.00" departLane="best" departSpeed="0">
        <route edges="R1 R2 R3 R4 R5 R6 R7 R8" />
    </vehicle>
    <vehicle id="25" type="back_intf" depart="0.00" departLane="best" departSpeed="0">
        <route edges="R1 R2 R3 R4 R5 R6 R7 R8" />
    </vehicle>
    <vehicle id="26" type="back_intf" depart="0.00" departLane="best" departSpeed="0">
        <route edges="R1 R2 R3 R4 R5 R6 R7 R8" />
    </vehicle>
    <vehicle id="27" type="back_intf" depart="0.00" departLane="best" departSpeed="0">
        <route edges="R1 R2 R3 R4 R5 R6 R7 R8" />
    </vehicle>
    <vehicle id="28" type="back_intf" depart="0.00" departLane="best" departSpeed="0">
        <route edges="R1 R2 R3 R4 R5 R6 R7 R8" />
    </vehicle>
    <vehicle id="29" type="back_intf" depart="0.00" departLane="best" departSpeed="0">
        <route edges="R1 R2 R3 R4 R5 R6 R7 R8" />
    </vehicle>
    <vehicle id="30" type="back_intf" depart="0.00" departLane="best" departSpeed="0">
        <route edges="R1 R2 R3 R4 R5 R6 R7 R8" />
    </vehicle>
    <vehicle id="31" type="back_intf" depart="0.00" departLane="best" departSpeed="0">
        <route edges="R1 R2 R3 R4 R5 R6 R7 R8" />
    </vehicle>
    <vehicle id="32" type="back_intf" depart="0.00" departLane="best" departSpeed="0">
        <route edges="R1 R2 R3 R4 R5 R6 R7 R8" />
    </vehicle>
    <vehicle id="33" type="back_intf" depart="0.00" departLane="best" departSpeed="0">
        <route edges="R1 R2 R3 R4 R5 R6 R7 R8" />
    </vehicle>
    <vehicle id="34" type="back_intf" depart="0.00" departLane="best" departSpeed="0">
        <route edges="R1 R2 R3 R4 R5 R6 R7 R8" />
    </vehicle>
    <vehicle id="35" type="back_intf" depart="0.00" departLane="best" departSpeed="0">
        <route edges="R1 R2 R3 R4 R5 R6 R7 R8" />
    </vehicle>
    <vehicle id="36" type="back_intf" depart="0.00" departLane="best" departSpeed="0">
        <route edges="R1 R2 R3 R4 R5 R6 R7 R8" />
    </vehicle>
    <!-- Interferentes restantes -->
    <vehicle id="37" type="intf" depart="11.25" departLane="best" departSpeed="0">
        <route edges="T5 T6 T7 T8" />
    </vehicle>
    <vehicle id="38" type="intf" depart="11.25" departLane="best" departSpeed="0">
        <route edges="T4 T5 T6 T7 T8" />
    </vehicle>
    <vehicle id="39" type="intf" depart="11.25" departLane="best" departSpeed="0">
        <route edges="T3 T4 T5 T6 T7 T8" />
    </vehicle>
    <vehicle id="40" type="intf" depart="11.25" departLane="best" departSpeed="0">
        <route edges="T2 T3 T4 T5 T6 T7 T8" />
    </vehicle>
    <vehicle id="41" type="intf" depart="11.25" departLane="best" departSpeed="0">
        <route edges="T5 T6 T7 T8" />
    </vehicle>
    <vehicle id="42" type="intf" depart="11.25" departLane="best" departSpeed="0">
        <route edges="T4 T5 T6 T7 T8" />
    </vehicle>
    <vehicle id="43" type="intf" depart="11.25" departLane="best" departSpeed="0">
        <route edges="T3 T4 T5 T6 T7 T8" />
    </vehicle>
    <vehicle id="44" type="intf" depart="11.25" departLane="best" departSpeed="0">
        <route edges="T2 T3 T4 T5 T6 T7 T8" />
    </vehicle>
    <vehicle id="45" type="intf" depart="11.25" departLane="best" departSpeed="0">
        <route edges="T5 T6 T7 T8" />
    </vehicle>
    <vehicle id="46" type="intf" depart="11.25" departLane="best" departSpeed="0">
        <route edges="T4 T5 T6 T7 T8" />
    </vehicle>
    <vehicle id="47" type="intf" depart="11.25" departLane="best" departSpeed="0">
        <route edges="T3 T4 T5 T6 T7 T8" />
    </vehicle>
    <vehicle id="48" type="intf" depart="11.25" departLane="best" departSpeed="0">
        <route edges="T2 T3 T4 T5 T6 T7 T8" />
    </vehicle>
    <vehicle id="49" type="intf" depart="11.25" departLane="best" departSpeed="0">
        <route edges="T5 T6 T7 T8" />
    </vehicle>
    <vehicle id="50" type="intf" depart="11.25" departLane="best" departSpeed="0">
        <route edges="T4 T5 T6 T7 T8" />
    </vehicle>
    <vehicle id="51" type="intf" depart="11.25" departLane="best" departSpeed="0">
        <route edges="T3 T4 T5 T6 T7 T8" />
    </vehicle>
    <vehicle id="52" type="intf" depart="11.25" departLane="best" departSpeed="0">
        <route edges="T2 T3 T4 T5 T6 T7 T8" />
    </vehicle>
    <vehicle id="53" type="intf" depart="11.25" departLane="best" departSpeed="0">
        <route edges="T5 T6 T7 T8" />
    </vehicle>
    <vehicle id="54" type="intf" depart="11.25" departLane="best" departSpeed="0">
        <route edges="T4 T5 T6 T7 T8" />
    </vehicle>
    <vehicle id="55" type="intf" depart="11.25" departLane="best" departSpeed="0">
        <route edges="T3 T4 T5 T6 T7 T8" />
    </vehicle>
    <vehicle id="56" type="intf" depart="11.25" departLane="best" departSpeed="0">
        <route edges="T2 T3 T4 T5 T6 T7 T8" />
    </vehicle>
    <vehicle id="57" type="intf" depart="11.25" departLane="best" departSpeed="0">
        <route edges="T5 T6 T7 T8" />
    </vehicle>
    <vehicle id="58" type="intf" depart="11.25" departLane="best" departSpeed="0">
        <route edges="T4 T5 T6 T7 T8" />
    </vehicle>
    <vehicle id="59" type="intf" depart="11.25" departLane="best" departSpeed="0">
        <route edges="T3 T4 T5 T6 T7 T8" />
    </vehicle>
    <vehicle id="60" type="intf" depart="11.25" departLane="best" departSpeed="0">
        <route edges="T2 T3 T4 T5 T6 T7 T8" />
    </vehicle>
    <vehicle id="61" type="intf" depart="11.25" departLane="best" departSpeed="0">
        <route edges="T5 T6 T7 T8" />
    </vehicle>
    <vehicle id="62" type="intf" depart="11.25" departLane="best" departSpeed="0">
        <route edges="T4 T5 T6 T7 T8" />
    </vehicle>
    <vehicle id="63" type="intf" depart="11.25" departLane="best" departSpeed="0">
        <route edges="T3 T4 T5 T6 T7 T8" />
    </vehicle>
    <vehicle id="64" type="intf" depart="11.25" departLane="best" departSpeed="0">
        <route edges="T2 T3 T4 T5 T6 T7 T8" />
    </vehicle>
    <vehicle id="65" type="intf" depart="11.25" departLane="best" departSpeed="0">
        <route edges="T5 T6 T7 T8" />
    </vehicle>
    <vehicle id="66" type="intf" depart="11.25" departLane="best" departSpeed="0">
        <route edges="T4 T5 T6 T7 T8" />
    </vehicle>
    <vehicle id="67" type="intf" depart="11.25" departLane="best" departSpeed="0">
        <route edges="T3 T4 T5 T6 T7 T8" />
    </vehicle>
    <vehicle id="68" type="intf" depart="11.25" departLane="best" departSpeed="0">
        <route edges="T2 T3 T4 T5 T6 T7 T8" />
    </vehicle>
    <vehicle id="69" type="intf" depart="11.25" departLane="best" departSpeed="0">
        <route edges="T5 T6 T7 T8" />
    </vehicle>
    <vehicle id="70" type="intf" depart="11.25" departLane="best" departSpeed="0">
        <route edges="T4 T5 T6 T7 T8" />
    </vehicle>
    <vehicle id="71" type="intf" depart="11.25" departLane="best" departSpeed="0">
        <route edges="T3 T4 T5 T6 T7 T8" />
    </vehicle>
    <vehicle id="72" type="intf" depart="11.25" departLane="best" departSpeed="0">
        <route edges="T2 T3 T4 T5 T6 T7 T8" />
    </vehicle>
    <vehicle id="73" type="intf" depart="11.25" departLane="best" departSpeed="0">
        <route edges="T5 T6 T7 T8" />
    </vehicle>
    <vehicle id="74" type="intf" depart="11.25" departLane="best" departSpeed="0">
        <route edges="T4 T5 T6 T7 T8" />
    </vehicle>
    <vehicle id="75" type="intf" depart="11.25" departLane="best" departSpeed="0">
        <route edges="T3 T4 T5 T6 T7 T8" />
    </vehicle>
    <vehicle id="76" type="intf" depart="11.25" departLane="best" departSpeed="0">
        <route edges="T2 T3 T4 T5 T6 T7 T8" />
    </vehicle>
    <vehicle id="77" type="intf" depart="11.25" departLane="best" departSpeed="0">
        <route edges="T5 T6 T7 T8" />
    </vehicle>
    <vehicle id="78" type="intf" depart="11.25" departLane="best" departSpeed="0">
        <route edges="T4 T5 T6 T7 T8" />
    </vehicle>
    <vehicle id="79" type="intf" depart="11.25" departLane="best" departSpeed="0">
        <route edges="T3 T4 T5 T6 T7 T8" />
    </vehicle>
    <vehicle id="80" type="intf" depart="11.25" departLane="best" departSpeed="0">
        <route edges="T2 T3 T4 T5 T6 T7 T8" />
    </vehicle>
    <vehicle id="81" type="intf" depart="11.25" departLane="best" departSpeed="0">
        <route edges="T5 T6 T7 T8" />
    </vehicle>
    <vehicle id="82" type="intf" depart="11.25" departLane="best" departSpeed="0">
        <route edges="T4 T5 T6 T7 T8" />
    </vehicle>
    <vehicle id="83" type="intf" depart="11.25" departLane="best" departSpeed="0">
        <route edges="T3 T4 T5 T6 T7 T8" />
    </vehicle>
    <vehicle id="84" type="intf" depart="11.25" departLane="best" departSpeed="0">
        <route edges="T2 T3 T4 T5 T6 T7 T8" />
    </vehicle>
    <vehicle id="85" type="intf" depart="11.25" departLane="best" departSpeed="0">
        <route edges="T5 T6 T7 T8" />
    </vehicle>
    <vehicle id="86" type="intf" depart="11.25" departLane="best" departSpeed="0">
        <route edges="T4 T5 T6 T7 T8" />
    </vehicle>
    <vehicle id="87" type="intf" depart="11.25" departLane="best" departSpeed="0">
        <route edges="T3 T4 T5 T6 T7 T8" />
    </vehicle>
    <vehicle id="88" type="intf" depart="11.25" departLane="best" departSpeed="0">
        <route edges="T2 T3 T4 T5 T6 T7 T8" />
    </vehicle>
    <vehicle id="89" type="intf" depart="11.25" departLane="best" departSpeed="0">
        <route edges="T5 T6 T7 T8" />
    </vehicle>
    <vehicle id="90" type="intf" depart="11.25" departLane="best" departSpeed="0">
        <route edges="T4 T5 T6 T7 T8" />
    </vehicle>
    <vehicle id="91" type="intf" depart="11.25" departLane="best" departSpeed="0">
        <route edges="T3 T4 T5 T6 T7 T8" />
    </vehicle>
    <vehicle id="92" type="intf" depart="11.25" departLane="best" departSpeed="0">
        <route edges="T2 T3 T4 T5 T6 T7 T8" />
    </vehicle>
    <vehicle id="93" type="intf" depart="11.25" departLane="best" departSpeed="0">
        <route edges="T5 T6 T7 T8" />
    </vehicle>
    <vehicle id="94" type="intf" depart="11.25" departLane="best" departSpeed="0">
        <route edges="T4 T5 T6 T7 T8" />
    </vehicle>
    <vehicle id="95" type="intf" depart="11.25" departLane="best" departSpeed="0">
        <route edges="T3 T4 T5 T6 T7 T8" />
    </vehicle>
    <vehicle id="96" type="intf" depart="11.25" departLane="best" departSpeed="0">
        <route edges="T2 T3 T4 T5 T6 T7 T8" />
    </vehicle>
    <vehicle id="97" type="intf" depart="11.25" departLane="best" departSpeed="0">
        <route edges="T5 T6 T7 T8" />
    </vehicle>
    <vehicle id="98" type="intf" depart="11.25" departLane="best" departSpeed="0">
        <route edges="T4 T5 T6 T7 T8" />
    </vehicle>
    <vehicle id="99" type="intf" depart="11.25" departLane="best" departSpeed="0">
        <route edges="T3 T4 T5 T6 T7 T8" />
    </vehicle>
    <vehicle id="100" type="intf" depart="11.25" departLane="best" departSpeed="0">
        <route edges="T2 T3 T4 T5 T6 T7 T8" />
    </vehicle>
    <vehicle id="101" type="intf" depart="11.25" departLane="best" departSpeed="0">
        <route edges="T5 T6 T7 T8" />
    </vehicle>
    <vehicle id="102" type="intf" depart="11.25" departLane="best" departSpeed="0">
        <route edges="T4 T5 T6 T7 T8" />
    </vehicle>
    <vehicle id="103" type="intf" depart="11.25" departLane="best" departSpeed="0">
        <route edges="T3 T4 T5 T6 T7 T8" />
    </vehicle>
    <vehicle id="104" type="intf" depart="11.25" departLane="best" departSpeed="0">
        <route edges="T2 T3 T4 T5 T6 T7 T8" />
    </vehicle>
    <vehicle id="105" type="intf" depart="11.25" departLane="best" departSpeed="0">
        <route edges="T5 T6 T7 T8" />
    </vehicle>
    <vehicle id="106" type="intf" depart="11.25" departLane="best" departSpeed="0">
        <route edges="T4 T5 T6 T7 T8" />
    </vehicle>
    <vehicle id="107" type="intf" depart="11.25" departLane="best" departSpeed="0">
        <route edges="T3 T4 T5 T6 T7 T8" />
    </vehicle>
    <vehicle id="108" type="intf" depart="11.25" departLane="best" departSpeed="0">
        <route edges="T2 T3 T4 T5 T6 T7 T8" />
    </vehicle>
    <vehicle id="109" type="intf" depart="11.25" departLane="best" departSpeed="0">
        <route edges="T5 T6 T7 T8" />
    </vehicle>
    <vehicle id="110" type="intf" depart="11.25" departLane="best" departSpeed="0">
        <route edges="T4 T5 T6 T7 T8" />
    </vehicle>
    <vehicle id="111" type="intf" depart="11.25" departLane="best" departSpeed="0">
        <route edges="T3 T4 T5 T6 T7 T8" />
    </vehicle>
    <vehicle id="112" type="intf" depart="11.25" departLane="best" departSpeed="0">
        <route edges="T2 T3 T4 T5 T6 T7 T8" />
    </vehicle>
    <vehicle id="113" type="intf" depart="11.25" departLane="best" departSpeed="0">
        <route edges="T5 T6 T7 T8" />
    </vehicle>
    <vehicle id="114" type="intf" depart="11.25" departLane="best" departSpeed="0">
        <route edges="T4 T5 T6 T7 T8" />
    </vehicle>
    <vehicle id="115" type="intf" depart="11.25" departLane="best" departSpeed="0">
        <route edges="T3 T4 T5 T6 T7 T8" />
    </vehicle>
    <vehicle id="116" type="intf" depart="11.25" departLane="best" departSpeed="0">
        <route edges="T2 T3 T4 T5 T6 T7 T8" />
    </vehicle>
    <vehicle id="117" type="intf" depart="11.25" departLane="best" departSpeed="0">
        <route edges="T5 T6 T7 T8" />
    </vehicle>
    <vehicle id="118" type="intf" depart="11.25" departLane="best" departSpeed="0">
        <route edges="T4 T5 T6 T7 T8" />
    </vehicle>
    <vehicle id="119" type="intf" depart="11.25" departLane="best" departSpeed="0">
        <route edges="T3 T4 T5 T6 T7 T8" />
    </vehicle>
    <vehicle id="120" type="intf" depart="11.25" departLane="best" departSpeed="0">
        <route edges="T2 T3 T4 T5 T6 T7 T8" />
    </vehicle>
    <!-- Interferentes adelante -->
    <vehicle id="121" type="front_intf" depart="31.25" departLane="best" departSpeed="0">
        <route edges="R3 R4 R5 R6 R7 R8" />
    </vehicle>
    <vehicle id="122" type="front_intf" depart="31.25" departLane="best" departSpeed="0">
        <route edges="R3 R4 R5 R6 R7 R8" />
    </vehicle>
    <vehicle id="123" type="front_intf" depart="31.25" departLane="best" departSpeed="0">
        <route edges="R3 R4 R5 R6 R7 R8" />
    </vehicle>
    <vehicle id="124" type="front_intf" depart="31.25" departLane="best" departSpeed="0">
        <route edges="R3 R4 R5 R6 R7 R8" />
    </vehicle>
    <vehicle id="125" type="front_intf" depart="31.25" departLane="best" departSpeed="0">
        <route edges="R3 R4 R5 R6 R7 R8" />
    </vehicle>
    <vehicle id="126" type="front_intf" depart="31.25" departLane="best" departSpeed="0">
        <route edges="R3 R4 R5 R6 R7 R8" />
    </vehicle>
    <vehicle id="127" type="front_intf" depart="31.25" departLane="best" departSpeed="0">
        <route edges="R3 R4 R5 R6 R7 R8" />
    </vehicle>
    <vehicle id="128" type="front_intf" depart="31.25" departLane="best" departSpeed="0">
        <route edges="R3 R4 R5 R6 R7 R8" />
    </vehicle>
    <vehicle id="129" type="front_intf" depart="31.25" departLane="best" departSpeed="0">
        <route edges="R3 R4 R5 R6 R7 R8" />
    </vehicle>
    <vehicle id="130" type="front_intf" depart="31.25" departLane="best" departSpeed="0">
        <route edges="R3 R4 R5 R6 R7 R8" />
    </vehicle>
    <vehicle id="131" type="front_intf" depart="31.25" departLane="best" departSpeed="0">
        <route edges="R3 R4 R5 R6 R7 R8" />
    </vehicle>
    <vehicle id="132" type="front_intf" depart="31.25" departLane="best" departSpeed="0">
        <route edges="R3 R4 R5 R6 R7 R8" />
    </vehicle>
    <vehicle id="133" type="front_intf" depart="31.25" departLane="best" departSpeed="0">
        <route edges="R3 R4 R5 R6 R7 R8" />
    </vehicle>
    <vehicle id="134" type="front_intf" depart="31.25" departLane="best" departSpeed="0">
        <route edges="R3 R4 R5 R6 R7 R8" />
    </vehicle>
    <vehicle id="135" type="front_intf" depart="31.25" departLane="best" departSpeed="0">
        <route edges="R3 R4 R5 R6 R7 R8" />
    </vehicle>
    <vehicle id="136" type="front_intf" depart="31.25" departLane="best" departSpeed="0">
        <route edges="R3 R4 R5 R6 R7 R8" />
    </vehicle>
    <vehicle id="137" type="front_intf" depart="31.25" departLane="best" departSpeed="0">
        <route edges="R3 R4 R5 R6 R7 R8" />
    </vehicle>
    <vehicle id="138" type="front_intf" depart="31.25" departLane="best" departSpeed="0">
        <route edges="R3 R4 R5 R6 R7 R8" />
    </vehicle>
    <vehicle id="139" type="front_intf" depart="31.25" departLane="best" departSpeed="0">
        <route edges="R3 R4 R5 R6 R7 R8" />
    </vehicle>
    <vehicle id="140" type="front_intf" depart="31.25" departLane="best" departSpeed="0">
        <route edges="R3 R4 R5 R6 R7 R8" />
    </vehicle>
    <vehicle id="141" type="front_intf" depart="31.25" departLane="best" departSpeed="0">
        <route edges="R3 R4 R5 R6 R7 R8" />
    </vehicle>
    <vehicle id="142" type="front_intf" depart="31.25" departLane="best" departSpeed="0">
        <route edges="R3 R4 R5 R6 R7 R8" />
    </vehicle>
    <vehicle id="143" type="front_intf" depart="31.25" departLane="best" departSpeed="0">
        <route edges="R3 R4 R5 R6 R7 R8" />
    </vehicle>
    <vehicle id="144" type="front_intf" depart="31.25" departLane="best" departSpeed="0">
        <route edges="R3 R4 R5 R6 R7 R8" />
    </vehicle>
    <vehicle id="145" type="front_intf" depart="31.25" departLane="best" departSpeed="0">
        <route edges="R3 R4 R5 R6 R7 R8" />
    </vehicle>
    <vehicle id="146" type="front_intf" depart="31.25" departLane="best" departSpeed="0">
        <route edges="R3 R4 R5 R6 R7 R8" />
    </vehicle>
    <vehicle id="147" type="front_intf" depart="31.25" departLane="best" departSpeed="0">
        <route edges="R3 R4 R5 R6 R7 R8" />
    </vehicle>
    <vehicle id="148" type="front_intf" depart="31.25" departLane="best" departSpeed="0">
        <route edges="R3 R4 R5 R6 R7 R8" />
    </vehicle>
    <vehicle id="149" type="front_intf" depart="31.25" departLane="best" departSpeed="0">
        <route edges="R3 R4 R5 R6 R7 R8" />
    </vehicle>
    <vehicle id="150" type="front_intf" depart="31.25" departLane="best" departSpeed="0">
        <route edges="R3 R4 R5 R6 R7 R8" />
    </vehicle>
    <vehicle id="151" type="front_intf" depart="31.25" departLane="best" departSpeed="0">
        <route edges="R3 R4 R5 R6 R7 R8" />
    </vehicle>
    <vehicle id="152" type="front_intf" depart="31.25" departLane="best" departSpeed="0">
        <route edges="R3 R4 R5 R6 R7 R8" />
    </vehicle>
    <vehicle id="153" type="front_intf" depart="31.25" departLane="best" departSpeed="0">
        <route edges="R3 R4 R5 R6 R7 R8" />
    </vehicle>
</routes>
