<?xml version="1.0" encoding="UTF-8"?>

<!-- generated on 2025-05-21 10:26:15 by Eclipse SUMO netedit Version v1_22_0+1150-6dafbf6a32a
<neteditConfiguration xmlns:xsi="http://www.w3.org/2001/XMLSchema-instance" xsi:noNamespaceSchemaLocation="http://sumo.dlr.de/xsd/neteditConfiguration.xsd">

    <input>
        <sumo-net-file value="/home/erick/Documentos/ns-3-dev/mapa/map.net.xml"/>
    </input>

    <output>
        <output-file value="/home/erick/Documentos/ns-3-dev/mapa/map.net.xml"/>
        <output.street-names value="true"/>
    </output>

    <processing>
        <geometry.min-radius.fix.railways value="false"/>
        <geometry.max-grade.fix value="false"/>
        <offset.disable-normalization value="true"/>
        <lefthand value="0"/>
    </processing>

    <junctions>
        <no-turnarounds value="true"/>
        <junctions.corner-detail value="5"/>
        <junctions.limit-turn-speed value="5.50"/>
        <rectangular-lane-cut value="0"/>
    </junctions>

    <pedestrian>
        <walkingareas value="0"/>
    </pedestrian>

</neteditConfiguration>
-->

<net version="1.20" junctionCornerDetail="5" limitTurnSpeed="5.50" xmlns:xsi="http://www.w3.org/2001/XMLSchema-instance" xsi:noNamespaceSchemaLocation="http://sumo.dlr.de/xsd/net_file.xsd">

    <location netOffset="-720723.27,320927.71" convBoundary="926.42,300.99,1259.77,648.12" origBoundary="-79.014295,-2.901736,-78.996230,-2.893873" projParameter="+proj=utm +zone=17 +ellps=WGS84 +datum=WGS84 +units=m +no_defs"/>

    <type id="highway.footway" priority="1" numLanes="1" speed="2.78" allow="pedestrian" oneway="1" width="2.00"/>
    <type id="highway.residential" priority="3" numLanes="1" speed="13.89" disallow="tram rail_urban rail rail_electric rail_fast ship container cable_car subway aircraft wheelchair scooter drone" oneway="0"/>

    <edge id=":2190601967_0" function="internal">
        <lane id=":2190601967_0_0" index="0" disallow="tram rail_urban rail rail_electric rail_fast ship container cable_car subway aircraft wheelchair scooter drone" speed="7.17" length="11.02" shape="1147.08,533.66 1143.98,534.11 1141.77,535.36 1140.43,537.41 1139.96,540.27"/>
    </edge>
    <edge id=":2190601967_1" function="internal">
        <lane id=":2190601967_1_0" index="0" disallow="tram rail_urban rail rail_electric rail_fast ship container cable_car subway aircraft wheelchair scooter drone" speed="8.33" length="11.60" shape="1147.08,533.66 1144.00,533.95 1141.67,534.54 1139.19,535.15 1135.67,535.50"/>
        <lane id=":2190601967_1_1" index="1" disallow="tram rail_urban rail rail_electric rail_fast ship container cable_car subway aircraft wheelchair scooter drone" speed="8.33" length="11.60" shape="1147.08,533.66 1143.99,533.45 1141.63,532.95 1139.12,532.45 1135.58,532.30"/>
    </edge>
    <edge id=":2190601967_3" function="internal">
        <lane id=":2190601967_3_0" index="0" disallow="tram rail_urban rail rail_electric rail_fast ship container cable_car subway aircraft wheelchair scooter drone" speed="8.33" length="12.58" shape="1142.95,528.13 1142.45,531.96 1141.43,534.67 1140.43,537.14 1139.96,540.27"/>
    </edge>
    <edge id=":2190601967_4" function="internal">
        <lane id=":2190601967_4_0" index="0" disallow="tram rail_urban rail rail_electric rail_fast ship container cable_car subway aircraft wheelchair scooter drone" speed="5.79" length="6.70" shape="1139.75,528.08 1139.46,529.88 1138.67,531.19 1137.38,531.99 1135.58,532.30"/>
    </edge>
    <edge id=":2496228891_0" function="internal">
        <lane id=":2496228891_0_0" index="0" disallow="tram rail_urban rail rail_electric rail_fast ship container cable_car subway aircraft wheelchair scooter drone" speed="7.14" length="10.52" shape="1037.91,421.59 1041.11,421.08 1043.41,419.93 1044.80,418.16 1045.29,415.75"/>
    </edge>
    <edge id=":2496228891_1" function="internal">
        <lane id=":2496228891_1_0" index="0" disallow="tram rail_urban rail rail_electric rail_fast ship container cable_car subway aircraft wheelchair scooter drone" speed="8.33" length="13.91" shape="1037.91,421.59 1051.80,420.85"/>
        <lane id=":2496228891_1_1" index="1" disallow="tram rail_urban rail rail_electric rail_fast ship container cable_car subway aircraft wheelchair scooter drone" speed="8.33" length="13.91" shape="1038.08,424.79 1051.97,424.05"/>
    </edge>
    <edge id=":2496228891_3" function="internal">
        <lane id=":2496228891_3_0" index="0" disallow="tram rail_urban rail rail_electric rail_fast ship container cable_car subway aircraft wheelchair scooter drone" speed="8.33" length="14.36" shape="1043.40,429.97 1043.77,425.42 1044.40,422.04 1045.00,419.07 1045.29,415.75"/>
    </edge>
    <edge id=":2496228891_4" function="internal">
        <lane id=":2496228891_4_0" index="0" disallow="tram rail_urban rail rail_electric rail_fast ship container cable_car subway aircraft wheelchair scooter drone" speed="6.69" length="4.21" shape="1046.60,430.05 1047.00,427.53 1047.80,426.08"/>
    </edge>
    <edge id=":2496228891_5" function="internal">
        <lane id=":2496228891_5_0" index="0" disallow="tram rail_urban rail rail_electric rail_fast ship container cable_car subway aircraft wheelchair scooter drone" speed="6.69" length="4.81" shape="1047.80,426.08 1048.02,425.69 1049.68,424.53 1051.97,424.05"/>
    </edge>
    <edge id=":2496228894_0" function="internal">
        <lane id=":2496228894_0_0" index="0" disallow="tram rail_urban rail rail_electric rail_fast ship container cable_car subway aircraft wheelchair scooter drone" speed="6.65" length="10.03" shape="1143.43,410.36 1143.74,412.85 1144.96,414.60 1147.08,415.62 1150.10,415.89"/>
    </edge>
    <edge id=":2496228894_1" function="internal">
        <lane id=":2496228894_1_0" index="0" disallow="tram rail_urban rail rail_electric rail_fast ship container cable_car subway aircraft wheelchair scooter drone" speed="8.33" length="14.86" shape="1143.43,410.36 1143.52,413.73 1143.95,416.84 1144.40,420.40 1144.56,425.13"/>
        <lane id=":2496228894_1_1" index="1" disallow="tram rail_urban rail rail_electric rail_fast ship container cable_car subway aircraft wheelchair scooter drone" speed="8.33" length="14.86" shape="1143.43,410.36 1143.02,413.72 1142.35,416.81 1141.70,420.35 1141.36,425.08"/>
    </edge>
    <edge id=":2496228894_3" function="internal">
        <lane id=":2496228894_3_0" index="0" disallow="tram rail_urban rail rail_electric rail_fast ship container cable_car subway aircraft wheelchair scooter drone" speed="9.72" length="14.49" shape="1135.58,416.47 1150.10,415.89"/>
        <lane id=":2496228894_3_1" index="1" disallow="tram rail_urban rail rail_electric rail_fast ship container cable_car subway aircraft wheelchair scooter drone" speed="9.72" length="14.49" shape="1135.75,419.67 1150.19,419.09"/>
    </edge>
    <edge id=":2496228894_5" function="internal">
        <lane id=":2496228894_5_0" index="0" disallow="tram rail_urban rail rail_electric rail_fast ship container cable_car subway aircraft wheelchair scooter drone" speed="6.36" length="9.04" shape="1135.75,419.67 1138.24,419.89 1140.00,420.87 1141.05,422.60 1141.36,425.08"/>
    </edge>
    <edge id=":2496228905_0" function="internal">
        <lane id=":2496228905_0_0" index="0" disallow="tram rail_urban rail rail_electric rail_fast ship container cable_car subway aircraft wheelchair scooter drone" speed="11.11" length="11.26" shape="1050.91,311.39 1039.69,312.02"/>
        <lane id=":2496228905_0_1" index="1" disallow="tram rail_urban rail rail_electric rail_fast ship container cable_car subway aircraft wheelchair scooter drone" speed="11.11" length="11.26" shape="1050.76,308.19 1039.48,308.83"/>
    </edge>
    <edge id=":2496228905_2" function="internal">
        <lane id=":2496228905_2_0" index="0" disallow="tram rail_urban rail rail_electric rail_fast ship container cable_car subway aircraft wheelchair scooter drone" speed="6.37" length="9.04" shape="1045.39,317.36 1045.03,314.89 1043.96,313.17 1042.18,312.22 1039.69,312.02"/>
    </edge>
    <edge id=":2496228911_0" function="internal">
        <lane id=":2496228911_0_0" index="0" disallow="tram rail_urban rail rail_electric rail_fast ship container cable_car subway aircraft wheelchair scooter drone" speed="7.05" length="10.09" shape="1153.55,304.99 1151.28,305.51 1149.61,306.89 1148.54,309.12 1148.08,312.21"/>
    </edge>
    <edge id=":2496228911_1" function="internal">
        <lane id=":2496228911_1_0" index="0" disallow="tram rail_urban rail rail_electric rail_fast ship container cable_car subway aircraft wheelchair scooter drone" speed="9.72" length="10.88" shape="1153.55,304.99 1150.54,305.35 1148.38,305.99 1146.15,306.64 1142.91,307.04"/>
        <lane id=":2496228911_1_1" index="1" disallow="tram rail_urban rail rail_electric rail_fast ship container cable_car subway aircraft wheelchair scooter drone" speed="9.72" length="10.88" shape="1153.55,304.99 1150.52,304.85 1148.31,304.39 1146.03,303.94 1142.76,303.85"/>
    </edge>
    <edge id=":2496347198_0" function="internal">
        <lane id=":2496347198_0_0" index="0" disallow="tram rail_urban rail rail_electric rail_fast ship container cable_car subway aircraft wheelchair scooter drone" speed="6.43" length="9.03" shape="1251.36,537.94 1251.07,535.47 1250.05,533.71 1248.31,532.68 1245.84,532.35"/>
    </edge>
    <edge id=":2496347198_1" function="internal">
        <lane id=":2496347198_1_0" index="0" disallow="tram rail_urban rail rail_electric rail_fast ship container cable_car subway aircraft wheelchair scooter drone" speed="8.33" length="11.18" shape="1251.36,537.94 1251.73,526.77"/>
    </edge>
    <edge id=":4285564017_0" function="internal">
        <lane id=":4285564017_0_0" index="0" disallow="tram rail_urban rail rail_electric rail_fast ship container cable_car subway aircraft wheelchair scooter drone" speed="3.91" length="2.45" shape="1247.49,637.41 1248.15,637.29 1248.62,636.99 1248.91,636.51 1249.02,635.85"/>
    </edge>
    <edge id=":473195061_0" function="internal">
        <lane id=":473195061_0_0" index="0" disallow="tram rail_urban rail rail_electric rail_fast ship container cable_car subway aircraft wheelchair scooter drone" speed="8.33" length="14.53" shape="1049.50,537.99 1034.91,538.13"/>
        <lane id=":473195061_0_1" index="1" disallow="tram rail_urban rail rail_electric rail_fast ship container cable_car subway aircraft wheelchair scooter drone" speed="8.33" length="14.53" shape="1049.41,534.79 1034.94,534.93"/>
    </edge>
    <edge id=":473195061_2" function="internal">
        <lane id=":473195061_2_0" index="0" disallow="tram rail_urban rail rail_electric rail_fast ship container cable_car subway aircraft wheelchair scooter drone" speed="6.39" length="9.04" shape="1049.41,534.79 1046.93,534.50 1045.18,533.49 1044.16,531.74 1043.87,529.26"/>
    </edge>
    <edge id=":473195061_3" function="internal">
        <lane id=":473195061_3_0" index="0" disallow="tram rail_urban rail rail_electric rail_fast ship container cable_car subway aircraft wheelchair scooter drone" speed="6.84" length="10.25" shape="1041.85,543.83 1041.48,541.36 1040.20,539.59 1038.01,538.51 1034.91,538.13"/>
    </edge>
    <edge id=":473195061_4" function="internal">
        <lane id=":473195061_4_0" index="0" disallow="tram rail_urban rail rail_electric rail_fast ship container cable_car subway aircraft wheelchair scooter drone" speed="8.33" length="14.73" shape="1041.85,543.83 1041.70,540.47 1041.24,537.38 1040.79,533.86 1040.67,529.17"/>
        <lane id=":473195061_4_1" index="1" disallow="tram rail_urban rail rail_electric rail_fast ship container cable_car subway aircraft wheelchair scooter drone" speed="8.33" length="14.73" shape="1041.85,543.83 1042.20,540.48 1042.84,537.43 1043.49,533.94 1043.87,529.26"/>
    </edge>
    <edge id=":473195063_0" function="internal">
        <lane id=":473195063_0_0" index="0" disallow="tram rail_urban rail rail_electric rail_fast ship container cable_car subway aircraft wheelchair scooter drone" speed="6.51" length="8.85" shape="940.93,537.19 938.54,537.51 936.80,538.51 935.71,540.20 935.28,542.58"/>
        <lane id=":473195063_0_1" index="1" disallow="tram rail_urban rail rail_electric rail_fast ship container cable_car subway aircraft wheelchair scooter drone" speed="8.01" length="13.90" shape="940.96,533.99 937.20,534.49 934.47,536.06 932.76,538.72 932.08,542.45"/>
    </edge>
    <edge id=":473195063_2" function="internal">
        <lane id=":473195063_2_0" index="0" disallow="tram rail_urban rail rail_electric rail_fast ship container cable_car subway aircraft wheelchair scooter drone" speed="8.33" length="14.53" shape="932.51,528.40 932.91,532.65 933.94,535.49 934.94,538.33 935.28,542.58"/>
        <lane id=":473195063_2_1" index="1" disallow="tram rail_urban rail rail_electric rail_fast ship container cable_car subway aircraft wheelchair scooter drone" speed="8.33" length="14.53" shape="929.31,528.33 929.71,532.56 930.74,535.39 931.74,538.22 932.08,542.45"/>
    </edge>
    <edge id=":473536079_0" function="internal">
        <lane id=":473536079_0_0" index="0" disallow="tram rail_urban rail rail_electric rail_fast ship container cable_car subway aircraft wheelchair scooter drone" speed="3.90" length="2.71" shape="1259.72,302.70 1259.63,301.96 1259.33,301.43 1258.80,301.13 1258.06,301.05"/>
    </edge>
    <edge id=":524356221_0" function="internal">
        <lane id=":524356221_0_0" index="0" disallow="tram rail_urban rail rail_electric rail_fast ship container cable_car subway aircraft wheelchair scooter drone" speed="7.34" length="11.26" shape="938.32,315.28 936.09,315.94 934.49,317.62 933.54,320.33 933.22,324.06"/>
    </edge>
    <edge id=":524356232_0" function="internal">
        <lane id=":524356232_0_0" index="0" disallow="tram rail_urban rail rail_electric rail_fast ship container cable_car subway aircraft wheelchair scooter drone" speed="6.63" length="9.00" shape="1250.74,413.20 1253.24,412.80 1255.04,411.76 1256.16,410.08 1256.59,407.76"/>
    </edge>
    <edge id=":524356232_1" function="internal">
        <lane id=":524356232_1_0" index="0" disallow="tram rail_urban rail rail_electric rail_fast ship container cable_car subway aircraft wheelchair scooter drone" speed="8.33" length="13.99" shape="1256.09,421.74 1256.59,407.76"/>
    </edge>
    <edge id=":524356247_0" function="internal">
        <lane id=":524356247_0_0" index="0" disallow="tram rail_urban rail rail_electric rail_fast ship container cable_car subway aircraft wheelchair scooter drone" speed="7.00" length="10.14" shape="1033.50,644.95 1035.82,644.44 1037.51,643.07 1038.56,640.84 1038.99,637.75"/>
    </edge>
    <edge id=":524356247_1" function="internal">
        <lane id=":524356247_1_0" index="0" disallow="tram rail_urban rail rail_electric rail_fast ship container cable_car subway aircraft wheelchair scooter drone" speed="11.11" length="10.96" shape="1033.50,644.95 1036.59,644.61 1038.89,644.00 1041.18,643.40 1044.27,643.08"/>
    </edge>
    <edge id=":525278461_0" function="internal">
        <lane id=":525278461_0_0" index="0" disallow="tram rail_urban rail rail_electric rail_fast ship container cable_car subway aircraft wheelchair scooter drone" speed="6.69" length="10.00" shape="933.15,421.60 933.57,424.06 934.86,425.77 937.00,426.72 940.01,426.91"/>
        <lane id=":525278461_0_1" index="1" disallow="tram rail_urban rail rail_electric rail_fast ship container cable_car subway aircraft wheelchair scooter drone" speed="7.46" length="12.70" shape="933.15,421.60 933.58,425.46 934.90,428.17 937.10,429.72 940.18,430.11"/>
    </edge>
    <edge id=":525278461_2" function="internal">
        <lane id=":525278461_2_0" index="0" disallow="tram rail_urban rail rail_electric rail_fast ship container cable_car subway aircraft wheelchair scooter drone" speed="8.33" length="14.37" shape="933.15,421.60 933.39,424.93 933.92,427.92 934.43,431.33 934.58,435.89"/>
        <lane id=":525278461_2_1" index="1" disallow="tram rail_urban rail rail_electric rail_fast ship container cable_car subway aircraft wheelchair scooter drone" speed="8.33" length="14.37" shape="933.15,421.60 932.89,424.92 932.32,427.90 931.73,431.28 931.38,435.82"/>
    </edge>
    <edge id=":617183244_0" function="internal">
        <lane id=":617183244_0_0" index="0" disallow="tram rail_urban rail rail_electric rail_fast ship container cable_car subway aircraft wheelchair scooter drone" speed="7.23" length="11.82" shape="929.41,642.23 929.91,644.77 931.54,646.54 934.30,647.56 938.17,647.81"/>
    </edge>
    <edge id=":7972079261_0" function="internal">
        <lane id=":7972079261_0_0" index="0" disallow="tram rail_urban rail rail_electric rail_fast ship container cable_car subway aircraft wheelchair scooter drone" speed="6.71" length="10.19" shape="1138.26,635.63 1138.55,638.74 1139.57,640.92 1141.33,642.17 1143.82,642.49"/>
    </edge>
    <edge id=":7972079261_1" function="internal">
        <lane id=":7972079261_1_0" index="0" disallow="tram rail_urban rail rail_electric rail_fast ship container cable_car subway aircraft wheelchair scooter drone" speed="11.11" length="11.30" shape="1132.61,641.28 1135.77,641.46 1138.22,641.94 1140.66,642.39 1143.82,642.49"/>
    </edge>

    <edge id="1053072563" from="2496228891" to="2496228905" priority="3" type="highway.residential" spreadType="center" shape="1045.20,422.80 1045.33,412.70 1045.39,310.05">
        <lane id="1053072563_0" index="0" disallow="tram rail_urban rail rail_electric rail_fast ship container cable_car subway aircraft wheelchair scooter drone" speed="8.33" length="98.39" shape="1045.29,415.75 1045.33,412.70 1045.39,317.36"/>
    </edge>
    <edge id="1081353722#1" from="12013799516" to="12013799519" priority="1" type="highway.footway" spreadType="center" shape="1082.25,470.93 1081.95,471.16 1080.87,472.28 1079.22,474.90 1078.37,477.89 1078.34,478.83">
        <lane id="1081353722#1_0" index="0" allow="pedestrian" speed="2.78" length="6.46" width="2.00" shape="1080.58,472.74 1079.22,474.90 1078.37,477.89 1078.34,478.69"/>
    </edge>
    <edge id="1081353722#2" from="12013799519" to="12013799515" priority="1" type="highway.footway" spreadType="center" shape="1078.34,478.83 1078.28,479.90 1078.38,480.92 1078.65,482.25 1079.27,483.95 1080.93,486.56 1082.08,487.57">
        <lane id="1081353722#2_0" index="0" allow="pedestrian" speed="2.78" length="7.30" width="2.00" shape="1078.33,478.97 1078.28,479.90 1078.38,480.92 1078.65,482.25 1079.27,483.95 1080.44,485.78"/>
    </edge>
    <edge id="1081353722#3" from="12013799515" to="12013799514" priority="1" type="highway.footway" spreadType="center" shape="1082.08,487.57 1083.25,488.60 1086.05,489.94 1089.12,490.46 1089.68,490.40">
        <lane id="1081353722#3_0" index="0" allow="pedestrian" speed="2.78" length="3.16" width="2.00" shape="1084.15,489.03 1086.05,489.94 1087.09,490.12"/>
    </edge>
    <edge id="1081353722#4" from="12013799514" to="12013799517" priority="1" type="highway.footway" spreadType="center" shape="1089.68,490.40 1092.21,490.11 1095.19,488.88 1097.52,487.00 1097.60,486.89">
        <lane id="1081353722#4_0" index="0" allow="pedestrian" speed="2.78" length="3.81" width="2.00" shape="1092.05,490.13 1092.21,490.11 1095.19,488.88 1095.52,488.61"/>
    </edge>
    <edge id="1081353722#5" from="12013799517" to="12013799488" priority="1" type="highway.footway" spreadType="center" shape="1097.60,486.89 1099.49,484.18 1100.45,481.12 1100.59,479.21 1100.57,478.75">
        <lane id="1081353722#5_0" index="0" allow="pedestrian" speed="2.78" length="6.59" width="2.00" shape="1098.92,485.00 1099.49,484.18 1100.45,481.12 1100.59,479.21 1100.57,478.75"/>
    </edge>
    <edge id="1081353722#6" from="12013799488" to="12013799489" priority="1" type="highway.footway" spreadType="center" shape="1100.57,478.75 1100.39,477.27 1100.07,476.08 1099.67,474.97 1097.83,472.08 1096.67,470.95">
        <lane id="1081353722#6_0" index="0" allow="pedestrian" speed="2.78" length="6.52" width="2.00" shape="1100.57,478.75 1100.39,477.27 1100.07,476.08 1099.67,474.97 1098.26,472.76"/>
    </edge>
    <edge id="1081353722#7" from="12013799489" to="12013799518" priority="1" type="highway.footway" spreadType="center" shape="1096.67,470.95 1095.00,469.78 1092.02,468.60 1089.93,468.38">
        <lane id="1081353722#7_0" index="0" allow="pedestrian" speed="2.78" length="2.51" width="2.00" shape="1094.65,469.64 1092.31,468.72"/>
    </edge>
    <edge id="1081353722#8" from="12013799518" to="12013799516" priority="1" type="highway.footway" spreadType="center" shape="1089.93,468.38 1089.19,468.31 1087.35,468.50 1086.00,468.84 1083.19,470.20 1082.25,470.93">
        <lane id="1081353722#8_0" index="0" allow="pedestrian" speed="2.78" length="3.18" width="2.00" shape="1087.37,468.50 1086.00,468.84 1084.40,469.61"/>
    </edge>
    <edge id="1296513962#0" from="12013799512" to="12013799504" priority="1" type="highway.footway" spreadType="center" shape="1100.39,528.30 1100.34,527.53 1100.04,523.79 1098.57,520.33 1096.17,517.60 1093.08,515.71 1089.55,514.86">
        <lane id="1296513962#0_0" index="0" allow="pedestrian" speed="2.78" length="16.88" width="2.00" shape="1100.39,528.30 1100.34,527.53 1100.04,523.79 1098.57,520.33 1096.17,517.60 1093.08,515.71 1091.78,515.40"/>
    </edge>
    <edge id="1296513962#1" from="12013799504" to="12013799513" priority="1" type="highway.footway" spreadType="center" shape="1089.55,514.86 1085.93,515.09 1082.54,516.42 1079.73,518.70 1077.72,521.70 1076.75,525.19 1076.87,528.79 1076.88,529.49">
        <lane id="1296513962#1_0" index="0" allow="pedestrian" speed="2.78" length="19.99" width="2.00" shape="1087.12,515.01 1085.93,515.09 1082.54,516.42 1079.73,518.70 1077.72,521.70 1076.75,525.19 1076.87,528.79 1076.88,529.49"/>
    </edge>
    <edge id="1296513963" from="12013799504" to="12013799514" priority="1" type="highway.footway" spreadType="center">
        <lane id="1296513963_0" index="0" allow="pedestrian" speed="2.78" length="19.52" width="2.00" shape="1089.56,512.43 1089.67,492.90"/>
    </edge>
    <edge id="1296513964" from="3781991258" to="12013799515" priority="1" type="highway.footway" spreadType="center">
        <lane id="1296513964_0" index="0" allow="pedestrian" speed="2.78" length="50.26" width="2.00" shape="1049.35,529.02 1080.50,489.58"/>
    </edge>
    <edge id="1296513965" from="12013799494" to="12013799489" priority="1" type="highway.footway" spreadType="center">
        <lane id="1296513965_0" index="0" allow="pedestrian" speed="2.78" length="56.48" width="2.00" shape="1134.56,425.84 1098.23,469.09"/>
    </edge>
    <edge id="1296513966" from="12013799495" to="12013799516" priority="1" type="highway.footway" spreadType="center">
        <lane id="1296513966_0" index="0" allow="pedestrian" speed="2.78" length="48.28" width="2.00" shape="1052.54,429.70 1080.77,468.87"/>
    </edge>
    <edge id="1296513967" from="12013799517" to="5459440901" priority="1" type="highway.footway" spreadType="center">
        <lane id="1296513967_0" index="0" allow="pedestrian" speed="2.78" length="51.10" width="2.00" shape="1099.27,488.71 1133.79,526.39"/>
    </edge>
    <edge id="1296513968" from="12013799497" to="12013799518" priority="1" type="highway.footway" spreadType="center">
        <lane id="1296513968_0" index="0" allow="pedestrian" speed="2.78" length="37.84" width="2.00" shape="1090.63,428.01 1089.97,465.85"/>
    </edge>
    <edge id="337277984#0" from="2496228894" to="524356232" priority="3" type="highway.residential" spreadType="center">
        <lane id="337277984#0_0" index="0" disallow="tram rail_urban rail rail_electric rail_fast ship container cable_car subway aircraft wheelchair scooter drone" speed="11.11" length="100.67" shape="1150.10,415.89 1250.74,413.20"/>
        <lane id="337277984#0_1" index="1" disallow="tram rail_urban rail rail_electric rail_fast ship container cable_car subway aircraft wheelchair scooter drone" speed="11.11" length="100.67" shape="1150.19,419.09 1250.82,416.40"/>
    </edge>
    <edge id="42141326#11" from="2496228911" to="2496228905" priority="3" type="highway.residential" spreadType="center">
        <lane id="42141326#11_0" index="0" disallow="tram rail_urban rail rail_electric rail_fast ship container cable_car subway aircraft wheelchair scooter drone" speed="11.11" length="92.10" shape="1142.91,307.04 1050.91,311.39"/>
        <lane id="42141326#11_1" index="1" disallow="tram rail_urban rail rail_electric rail_fast ship container cable_car subway aircraft wheelchair scooter drone" speed="11.11" length="92.10" shape="1142.76,303.85 1050.76,308.19"/>
    </edge>
    <edge id="42141326#12" from="2496228905" to="524356221" priority="3" type="highway.residential" spreadType="center" shape="1045.39,310.05 953.76,316.01 933.22,317.17">
        <lane id="42141326#12_0" index="0" disallow="tram rail_urban rail rail_electric rail_fast ship container cable_car subway aircraft wheelchair scooter drone" speed="11.11" length="101.39" shape="1039.69,312.02 953.86,317.61 938.50,318.47"/>
        <lane id="42141326#12_1" index="1" disallow="tram rail_urban rail rail_electric rail_fast ship container cable_car subway aircraft wheelchair scooter drone" speed="11.11" length="101.39" shape="1039.48,308.83 953.66,314.41 938.32,315.28"/>
    </edge>
    <edge id="49217102" from="524356247" to="473195061" priority="3" type="highway.residential" spreadType="center" shape="1038.78,644.57 1042.07,536.60">
        <lane id="49217102_0" index="0" disallow="tram rail_urban rail rail_electric rail_fast ship container cable_car subway aircraft wheelchair scooter drone" speed="8.33" length="93.96" shape="1038.99,637.75 1041.85,543.83"/>
    </edge>
    <edge id="542428845#0" from="2190601967" to="7972079261" priority="3" type="highway.residential" spreadType="center" shape="1141.26,533.74 1139.99,536.63 1139.77,568.09 1139.41,579.38 1138.11,642.77">
        <lane id="542428845#0_0" index="0" disallow="tram rail_urban rail rail_electric rail_fast ship container cable_car subway aircraft wheelchair scooter drone" speed="8.33" length="95.38" shape="1139.96,540.27 1139.77,568.09 1139.41,579.38 1138.26,635.63"/>
    </edge>
    <edge id="567060339#3" from="473195063" to="617183244" priority="3" type="highway.residential" shape="930.75,535.49 929.19,575.98 927.69,648.12">
        <lane id="567060339#3_0" index="0" disallow="tram rail_urban rail rail_electric rail_fast ship container cable_car subway aircraft wheelchair scooter drone" speed="8.33" length="99.79" shape="935.28,542.58 933.99,576.12 932.61,642.29"/>
        <lane id="567060339#3_1" index="1" disallow="tram rail_urban rail rail_electric rail_fast ship container cable_car subway aircraft wheelchair scooter drone" speed="8.33" length="99.79" shape="932.08,542.45 930.79,576.03 929.41,642.23"/>
    </edge>
    <edge id="E0" from="524356247" to="7972079261" priority="-1" type="highway.residential">
        <lane id="E0_0" index="0" disallow="tram rail_urban rail rail_electric rail_fast ship container cable_car subway aircraft wheelchair scooter drone" speed="13.89" length="88.36" shape="1044.27,643.08 1132.61,641.28"/>
    </edge>
    <edge id="E1" from="525278461" to="473195063" priority="3" type="highway.residential" spreadType="center">
        <lane id="E1_0" index="0" disallow="tram rail_urban rail rail_electric rail_fast ship container cable_car subway aircraft wheelchair scooter drone" speed="8.33" length="92.54" shape="934.58,435.89 932.51,528.40"/>
        <lane id="E1_1" index="1" disallow="tram rail_urban rail rail_electric rail_fast ship container cable_car subway aircraft wheelchair scooter drone" speed="8.33" length="92.54" shape="931.38,435.82 929.31,528.33"/>
    </edge>
    <edge id="E10" from="2496347198" to="524356232" priority="3" type="highway.residential" spreadType="center">
        <lane id="E10_0" index="0" disallow="tram rail_urban rail rail_electric rail_fast ship container cable_car subway aircraft wheelchair scooter drone" speed="8.33" length="105.12" shape="1251.73,526.77 1256.09,421.74"/>
    </edge>
    <edge id="E11" from="2496228911" to="2496228894" priority="3" type="highway.residential" spreadType="center">
        <lane id="E11_0" index="0" disallow="tram rail_urban rail rail_electric rail_fast ship container cable_car subway aircraft wheelchair scooter drone" speed="8.33" length="98.26" shape="1148.08,312.21 1143.43,410.36"/>
    </edge>
    <edge id="E12" from="473195061" to="473195063" priority="3" type="highway.residential" spreadType="center">
        <lane id="E12_0" index="0" disallow="tram rail_urban rail rail_electric rail_fast ship container cable_car subway aircraft wheelchair scooter drone" speed="8.33" length="93.98" shape="1034.91,538.13 940.93,537.19"/>
        <lane id="E12_1" index="1" disallow="tram rail_urban rail rail_electric rail_fast ship container cable_car subway aircraft wheelchair scooter drone" speed="8.33" length="93.98" shape="1034.94,534.93 940.96,533.99"/>
    </edge>
    <edge id="E14" from="524356232" to="473536079" priority="3" type="highway.residential" spreadType="center">
        <lane id="E14_0" index="0" disallow="tram rail_urban rail rail_electric rail_fast ship container cable_car subway aircraft wheelchair scooter drone" speed="8.33" length="105.10" shape="1256.59,407.76 1259.72,302.70"/>
    </edge>
    <edge id="E15" from="473195061" to="2496228891" priority="3" type="highway.residential" spreadType="center">
        <lane id="E15_0" index="0" disallow="tram rail_urban rail rail_electric rail_fast ship container cable_car subway aircraft wheelchair scooter drone" speed="8.33" length="99.24" shape="1040.67,529.17 1043.40,429.97"/>
        <lane id="E15_1" index="1" disallow="tram rail_urban rail rail_electric rail_fast ship container cable_car subway aircraft wheelchair scooter drone" speed="8.33" length="99.24" shape="1043.87,529.26 1046.60,430.05"/>
    </edge>