<?xml version="1.0" encoding="UTF-8"?>

<!-- generated on 2025-05-21 10:26:54 by Eclipse SUMO polyconvert Version v1_22_0+1150-6dafbf6a32a
<polyconvertConfiguration xmlns:xsi="http://www.w3.org/2001/XMLSchema-instance" xsi:noNamespaceSchemaLocation="http://sumo.dlr.de/xsd/polyconvertConfiguration.xsd">

    <input>
        <net-file value="map.net.xml"/>
        <osm-files value="mapa_r.osm"/>
    </input>

    <output>
        <output-file value="mapa.poly.xml"/>
    </output>

    <report>
        <verbose value="true"/>
    </report>

</polyconvertConfiguration>
-->

<additional xmlns:xsi="http://www.w3.org/2001/XMLSchema-instance" xsi:noNamespaceSchemaLocation="http://sumo.dlr.de/xsd/additional_file.xsd">
    <location netOffset="-720723.27,320927.71" convBoundary="-0.00,-59.16,2008.14,986.20" origBoundary="-79.014295,-2.902268,-78.996230,-2.892823" projParameter="+proj=utm +zone=17 +ellps=WGS84 +datum=WGS84 +units=m +no_defs"/>

    <poly id="1019278011" type="building" color="255,230,230" fill="1" layer="-1.00" shape="1257.641251,494.629363 1258.693148,473.137831 1278.720875,473.312670 1281.705395,494.686489 1257.641251,494.629363"/>
    <poly id="1043828746" type="building" color="255,230,230" fill="1" layer="-1.00" shape="1279.000093,587.573573 1279.016654,578.039780 1334.263122,578.849338 1334.154135,586.414608 1334.123952,588.217450 1279.000093,587.573573"/>
    <poly id="1043828747" type="building" color="255,230,230" fill="1" layer="-1.00" shape="1329.692921,629.435024 1330.016848,605.013853 1274.804490,604.635566 1274.407271,631.644911 1329.692921,629.435024"/>
    <poly id="1081353721" type="amenity" color="237,199,199" fill="1" layer="-1.00" shape="1109.061740,505.541961 1110.252138,505.849546 1111.287440,506.489205 1112.078624,507.427915 1112.525416,508.555252 1112.627621,509.760617 1112.340582,510.944547 1111.708565,511.985304 1110.775858,512.772209 1109.653563,513.249768 1108.441684,513.373563 1107.229083,513.088137 1106.138201,512.459636 1105.324776,511.520965 1104.844605,510.382626 1104.742322,509.133022 1105.029322,507.926972 1105.705800,506.875077 1106.649608,506.077091 1107.827523,505.610495 1109.061740,505.541961"/>
    <poly id="1081353721#1" type="water" color="181,209,209" fill="1" layer="-4.00" shape="1109.061740,505.541961 1110.252138,505.849546 1111.287440,506.489205 1112.078624,507.427915 1112.525416,508.555252 1112.627621,509.760617 1112.340582,510.944547 1111.708565,511.985304 1110.775858,512.772209 1109.653563,513.249768 1108.441684,513.373563 1107.229083,513.088137 1106.138201,512.459636 1105.324776,511.520965 1104.844605,510.382626 1104.742322,509.133022 1105.029322,507.926972 1105.705800,506.875077 1106.649608,506.077091 1107.827523,505.610495 1109.061740,505.541961"/>
    <poly id="1081353723" type="building" color="255,230,230" fill="1" layer="-1.00" shape="938.586550,434.206268 938.248628,482.295878 1023.541192,482.875697 1039.098470,482.981026 1039.205854,468.182507 1039.214170,466.589847 1039.329245,449.844747 1039.345019,446.172787 1039.436334,434.880328 1023.823481,434.786162 938.586550,434.206268"/>
    <poly id="1081353723#1" type="historic" color="128,255,128" fill="1" layer="-1.00" shape="938.586550,434.206268 938.248628,482.295878 1023.541192,482.875697 1039.098470,482.981026 1039.205854,468.182507 1039.214170,466.589847 1039.329245,449.844747 1039.345019,446.172787 1039.436334,434.880328 1023.823481,434.786162 938.586550,434.206268"/>
    <poly id="1081353724" type="man_made" color="255,230,230" fill="1" layer="-1.00" shape="1023.541192,482.875697 1023.570834,468.132617 1039.205854,468.182507 1039.098470,482.981026 1023.541192,482.875697"/>
    <poly id="1081353725" type="man_made" color="255,230,230" fill="1" layer="-1.00" shape="1023.727529,449.761620 1023.823481,434.786162 1039.436334,434.880328 1039.329245,449.844747 1023.727529,449.761620"/>
    <poly id="1081353729" type="building" color="255,230,230" fill="1" layer="-1.00" shape="1035.892098,487.156305 1036.557349,530.256099 969.540180,532.530772 968.871057,518.806449 984.638332,518.181455 984.596316,500.629255 968.360966,500.668892 968.458814,518.353713 968.895213,532.531907 954.017702,533.243812 954.311237,523.112306 955.254959,509.628466 956.448194,492.593916 956.853467,489.087172 961.579535,489.089914 963.055396,487.317711 1035.892098,487.156305"/>
    <poly id="1081353730" type="building" color="255,230,230" fill="1" layer="-1.00" shape="1002.003184,521.756460 1001.765270,500.311471 1025.839956,500.058947 1026.077854,521.492879 1002.003184,521.756460"/>
    <poly id="1081353731" type="building" color="255,230,230" fill="1" layer="-1.00" shape="935.103650,515.039105 951.710178,504.757230 955.254959,509.628466 954.311237,523.112306 954.017702,533.243812 934.458916,534.129853 935.103650,515.039105"/>
    <poly id="1081353732" type="building" color="255,230,230" fill="1" layer="-1.00" shape="1144.276353,478.626149 1144.448737,525.984953 1171.714086,525.251202 1170.969289,500.146211 1178.519837,500.121849 1178.448381,478.499585 1173.233061,478.519834 1144.276353,478.626149"/>
    <poly id="1081353733" type="building" color="255,230,230" fill="1" layer="-1.00" shape="1144.439145,621.565866 1162.542280,621.279607 1188.172817,620.449206 1187.679435,605.496892 1194.284446,605.286178 1194.495966,611.733812 1195.224452,633.896863 1144.719543,635.556328 1144.356046,624.895086 1144.439145,621.565866"/>
    <poly id="1081353733#1" type="tourism" color="207,245,201" fill="1" layer="-2.00" shape="1144.439145,621.565866 1162.542280,621.279607 1188.172817,620.449206 1187.679435,605.496892 1194.284446,605.286178 1194.495966,611.733812 1195.224452,633.896863 1144.719543,635.556328 1144.356046,624.895086 1144.439145,621.565866"/>
    <poly id="1081353735" type="building" color="255,230,230" fill="1" layer="-1.00" shape="1253.843480,699.623027 1301.086366,702.083622 1304.245639,702.730599 1304.155459,689.414454 1253.489927,688.298159 1253.843480,699.623027"/>
    <poly id="1081353737" type="amenity" color="237,199,199" fill="1" layer="-1.00" shape="980.711534,397.379617 979.997120,376.886632 1001.079613,376.152724 1001.805151,396.645691 980.711534,397.379617"/>
    <poly id="1081353737#1" type="building" color="255,230,230" fill="1" layer="-1.00" shape="980.711534,397.379617 979.997120,376.886632 1001.079613,376.152724 1001.805151,396.645691 980.711534,397.379617"/>
    <poly id="1081353737#2" type="leisure" color="207,245,201" fill="1" layer="-2.00" shape="980.711534,397.379617 979.997120,376.886632 1001.079613,376.152724 1001.805151,396.645691 980.711534,397.379617"/>
    <poly id="1081353738" type="amenity" color="237,199,199" fill="1" layer="-1.00" shape="990.389045,386.446322 990.645216,386.678132 990.845923,386.987459 990.913267,387.341262 990.858309,387.706340 990.703193,388.027354 990.436758,388.282204 990.092288,388.426591 989.736503,388.460398 989.380484,388.361484 989.068771,388.162952 988.856963,387.864705 988.756278,387.522021 988.755655,387.168101 988.888531,386.847126 989.099346,386.581314 989.388138,386.392785 989.710465,386.303737 990.066347,386.325230 990.389045,386.446322"/>
    <poly id="1081353738#1" type="water" color="181,209,209" fill="1" layer="-4.00" shape="990.389045,386.446322 990.645216,386.678132 990.845923,386.987459 990.913267,387.341262 990.858309,387.706340 990.703193,388.027354 990.436758,388.282204 990.092288,388.426591 989.736503,388.460398 989.380484,388.361484 989.068771,388.162952 988.856963,387.864705 988.756278,387.522021 988.755655,387.168101 988.888531,386.847126 989.099346,386.581314 989.388138,386.392785 989.710465,386.303737 990.066347,386.325230 990.389045,386.446322"/>
    <poly id="1081353740" type="school" color="237,199,199" fill="1" layer="-2.00" shape="1305.138183,414.161173 1361.501948,411.694923 1363.818838,407.598616 1367.790073,307.498090 1361.501058,304.025268 1340.774732,304.957699 1341.538104,359.471369 1304.475919,360.211399 1304.912590,399.739261 1305.138183,414.161173"/>
    <poly id="1081357981" type="amenity" color="237,199,199" fill="1" layer="-1.00" shape="1187.532543,414.821952 1187.928305,386.994177 1177.044613,376.041794 1196.704419,356.762660 1209.860752,370.055766 1203.889065,376.270979 1193.899302,386.696092 1193.280866,414.369419 1190.301005,414.562692 1187.532543,414.821952"/>
    <poly id="1081357981#1" type="building" color="255,230,230" fill="1" layer="-1.00" shape="1187.532543,414.821952 1187.928305,386.994177 1177.044613,376.041794 1196.704419,356.762660 1209.860752,370.055766 1203.889065,376.270979 1193.899302,386.696092 1193.280866,414.369419 1190.301005,414.562692 1187.532543,414.821952"/>
    <poly id="1081357982" type="amenity" color="237,199,199" fill="1" layer="-1.00" shape="1152.666842,374.680131 1174.783779,374.088150 1177.044613,376.041794 1187.928305,386.994177 1187.532543,414.821952 1159.876200,414.527827 1152.560712,409.110236 1152.666842,374.680131"/>
    <poly id="1081357982#1" type="building" color="255,230,230" fill="1" layer="-1.00" shape="1152.666842,374.680131 1174.783779,374.088150 1177.044613,376.041794 1187.928305,386.994177 1187.532543,414.821952 1159.876200,414.527827 1152.560712,409.110236 1152.666842,374.680131"/>
    <poly id="1138341270" type="building" color="255,230,230" fill="1" layer="-1.00" shape="1014.128193,669.375531 1035.324686,670.200916 1034.311178,650.349933 1014.862223,650.472639 1014.128193,669.375531"/>
    <poly id="1138341733" type="building" color="255,230,230" fill="1" layer="-1.00" shape="1017.888831,556.788810 1018.482414,540.230891 1033.160975,540.205051 1035.701756,543.264209 1035.992114,569.232665 1024.028767,570.337606 1023.471406,556.933824 1017.888831,556.788810"/>
    <poly id="1148692920" type="building" color="255,230,230" fill="1" layer="-1.00" shape="1263.627057,345.031622 1264.270317,325.144515 1275.568435,325.168831 1275.415382,339.270668 1270.855508,338.924787 1270.634448,345.992550 1263.627057,345.031622"/>
    <poly id="1148692921" type="building" color="255,230,230" fill="1" layer="-1.00" shape="1275.568435,325.168831 1280.150393,325.426192 1280.264788,339.848299 1275.415382,339.270668 1275.568435,325.168831"/>
    <poly id="1148692922" type="parking" color="184,184,179" fill="1" layer="-1.00" shape="1284.867202,358.011848 1341.523492,357.491644 1341.243693,331.257685 1322.875045,332.307611 1322.804423,336.399956 1308.059394,336.569744 1307.476015,346.270440 1284.279773,346.499370 1284.433852,351.896404 1284.502270,352.858508 1284.867202,358.011848"/>
    <poly id="1148692923" type="building" color="255,230,230" fill="1" layer="-1.00" shape="1262.686090,385.280807 1263.065432,373.379523 1274.375865,374.078484 1273.662647,385.825517 1262.686090,385.280807"/>
    <poly id="1148692924" type="building" color="255,230,230" fill="1" layer="-1.00" shape="1263.065432,373.379523 1263.357568,362.473798 1272.531766,362.512922 1300.577027,362.640427 1300.118190,373.601749 1274.375865,374.078484 1263.065432,373.379523"/>
    <poly id="1148692925" type="building" color="255,230,230" fill="1" layer="-1.00" shape="1263.357568,362.473798 1263.258759,356.888646 1272.354920,356.817307 1272.531766,362.512922 1263.357568,362.473798"/>
    <poly id="1148692926" type="parking" color="184,184,179" fill="1" layer="-1.00" shape="1217.635731,465.822079 1217.508975,469.615899 1217.094546,480.543957 1224.990384,480.839724 1224.492061,494.643543 1249.978954,494.344246 1251.073022,465.232266 1231.701387,465.056267 1217.635731,465.822079"/>
    <poly id="1148695165" type="building" color="255,230,230" fill="1" layer="-1.00" shape="1285.042194,539.274739 1284.601188,528.812706 1306.238598,527.425242 1307.535196,550.129247 1294.701346,549.466143 1294.759977,544.876118 1289.611704,545.084273 1289.069048,540.041845 1285.088292,540.192642 1285.042194,539.274739"/>
    <poly id="1151350082" type="parking" color="184,184,179" fill="1" layer="-1.00" shape="1098.523568,267.813876 1110.021969,267.915271 1109.699951,255.561771 1130.948304,254.296652 1130.955727,245.891006 1132.103892,241.166344 1114.722062,240.566562 1115.513199,247.787375 1099.690484,248.489927 1098.523568,267.813876"/>
    <poly id="1151353334" type="building" color="255,230,230" fill="1" layer="-1.00" shape="899.969464,448.641215 899.964215,439.339740 922.748495,438.835118 923.839969,452.437035 913.754382,452.653866 904.625046,452.824773 899.969464,448.641215"/>
    <poly id="1151353335" type="building" color="255,230,230" fill="1" layer="-1.00" shape="899.964215,439.339740 884.651577,439.222908 884.993289,450.149614 899.969464,448.641215 899.964215,439.339740"/>
    <poly id="1151354066" type="building" color="255,230,230" fill="1" layer="-1.00" shape="1045.435625,539.066378 1078.761099,538.133960 1079.940591,551.193790 1066.855182,552.909016 1067.061451,581.642633 1044.298433,581.616345 1045.435625,539.066378"/>
    <poly id="1151354067" type="building" color="255,230,230" fill="1" layer="-1.00" shape="1043.877842,601.691053 1044.298433,581.616345 1089.303852,582.820079 1089.662594,597.097959 1086.615834,597.191803 1086.031919,600.289643 1043.877842,601.691053"/>
    <poly id="1151354068" type="building" color="255,230,230" fill="1" layer="-1.00" shape="1006.778557,644.547625 1030.695876,643.322113 1036.237348,639.065306 1035.976671,623.637013 1010.378698,624.002804 1009.133282,624.027116 1007.939405,634.381410 1006.778557,644.547625"/>
    <poly id="1151354069" type="building" color="255,230,230" fill="1" layer="-1.00" shape="1010.378698,624.002804 1011.329377,608.152100 1036.473097,608.738270 1035.976671,623.637013 1010.378698,624.002804"/>
    <poly id="1151354070" type="building" color="255,230,230" fill="1" layer="-1.00" shape="1011.329377,608.152100 1005.302093,608.063167 1006.056925,600.983416 1006.073877,591.659777 1016.837945,591.519172 1024.232615,591.384497 1036.564135,590.964630 1036.473097,608.738270 1011.329377,608.152100"/>
    <poly id="1151354071" type="building" color="255,230,230" fill="1" layer="-1.00" shape="1024.232615,591.384497 1024.028767,570.337606 1035.992114,569.232665 1036.564135,590.964630 1024.232615,591.384497"/>
    <poly id="1151354072" type="building" color="255,230,230" fill="1" layer="-1.00" shape="1018.482414,540.230891 999.857242,540.849858 1000.630911,550.791467 1003.115982,591.698163 1006.073877,591.659777 1016.837945,591.519172 1017.888831,556.788810 1018.482414,540.230891"/>
    <poly id="1151354073" type="building" color="255,230,230" fill="1" layer="-1.00" shape="931.850332,543.093068 944.460253,542.904979 944.793608,555.402228 943.103370,555.416262 942.668922,573.942579 931.680687,573.077110 931.850332,543.093068"/>
    <poly id="1151354074" type="building" color="255,230,230" fill="1" layer="-1.00" shape="944.460253,542.904979 955.356743,542.189021 955.758552,555.670494 944.793608,555.402228 944.460253,542.904979"/>
    <poly id="1151354075" type="building" color="255,230,230" fill="1" layer="-1.00" shape="955.356743,542.189021 968.377506,541.657345 969.490213,567.325724 969.779952,573.994414 957.425750,574.159934 955.758552,555.670494 955.356743,542.189021"/>
    <poly id="1151354076" type="building" color="255,230,230" fill="1" layer="-1.00" shape="968.377506,541.657345 985.145517,540.986352 984.530280,551.560827 983.779433,567.223157 969.490213,567.325724 968.377506,541.657345"/>
    <poly id="1151355666" type="building" color="255,230,230" fill="1" layer="-1.00" shape="901.066821,648.892166 885.476155,648.775805 885.220386,642.449919 884.928845,634.752653 901.443005,635.166009 901.066821,648.892166"/>
    <poly id="1151355667" type="building" color="255,230,230" fill="1" layer="-1.00" shape="885.476155,648.775805 875.835514,649.080320 876.257917,642.664762 885.220386,642.449919 885.476155,648.775805"/>
    <poly id="1151355668" type="building" color="255,230,230" fill="1" layer="-1.00" shape="875.835514,649.080320 868.307541,649.292639 869.076920,637.833098 869.402082,633.032475 876.897141,633.074594 876.257917,642.664762 875.835514,649.080320"/>
    <poly id="1151355669" type="building" color="255,230,230" fill="1" layer="-1.00" shape="868.307541,649.292639 859.612636,649.894110 859.401286,637.208632 869.076920,637.833098 868.307541,649.292639"/>
    <poly id="1151355670" type="building" color="255,230,230" fill="1" layer="-1.00" shape="849.916862,650.464161 859.612636,649.894110 859.401286,637.208632 859.195387,633.946286 854.769656,633.998309 853.719561,631.268329 846.671681,632.574746 848.917409,644.913785 849.916862,650.464161"/>
    <poly id="1151355672" type="building" color="255,230,230" fill="1" layer="-1.00" shape="900.000220,611.489025 900.505406,595.240954 923.300544,594.570432 923.621459,612.641957 900.000220,611.489025"/>
    <poly id="1151355673" type="building" color="255,230,230" fill="1" layer="-1.00" shape="900.505406,595.240954 900.129475,577.501330 908.137245,578.217204 923.427622,578.311965 923.300544,594.570432 900.505406,595.240954"/>
    <poly id="1151355674" type="building" color="255,230,230" fill="1" layer="-1.00" shape="931.826612,599.134285 931.781489,586.127769 957.328592,588.460726 955.913557,599.523248 931.826612,599.134285"/>
    <poly id="1151355676" type="building" color="255,230,230" fill="1" layer="-1.00" shape="931.781489,586.127769 931.680687,573.077110 942.668922,573.942579 957.425750,574.159934 957.328592,588.460726 931.781489,586.127769"/>
    <poly id="1151355677" type="building" color="255,230,230" fill="1" layer="-1.00" shape="931.911545,609.486324 931.826612,599.134285 955.913557,599.523248 956.955951,610.515086 943.677531,609.974386 931.911545,609.486324"/>
    <poly id="1151355678" type="building" color="255,230,230" fill="1" layer="-1.00" shape="930.370864,637.625752 931.911545,609.486324 943.677531,609.974386 943.056808,623.756277 951.953900,624.304686 951.431507,637.091002 930.370864,637.625752"/>
    <poly id="1151355679" type="building" color="255,230,230" fill="1" layer="-1.00" shape="981.990097,681.553873 981.983578,652.565537 997.272317,651.720194 998.290090,680.319653 998.335914,681.082714 981.990097,681.553873"/>
    <poly id="1151355680" type="building" color="255,230,230" fill="1" layer="-1.00" shape="998.290090,680.319653 1013.777595,678.677638 1014.128193,669.375531 1014.862223,650.472639 997.272317,651.720194 998.290090,680.319653"/>
    <poly id="1151355681" type="building" color="255,230,230" fill="1" layer="-1.00" shape="963.081966,654.080835 981.983578,652.565537 981.990097,681.553873 964.053772,681.839807 963.081966,654.080835"/>
    <poly id="1151355682" type="building" color="255,230,230" fill="1" layer="-1.00" shape="963.081966,654.080835 954.219982,654.527767 954.151002,665.886541 954.036888,683.195691 954.299643,693.492119 963.693781,692.126270 964.053772,681.839807 963.081966,654.080835"/>
    <poly id="1151355683" type="building" color="255,230,230" fill="1" layer="-1.00" shape="954.219982,654.527767 934.118138,656.465453 930.411369,660.652664 929.791302,674.810594 938.788362,675.292470 940.174907,666.995008 954.151002,665.886541 954.219982,654.527767"/>
    <poly id="1159044198" type="building" color="255,230,230" fill="1" layer="-1.00" shape="1139.719509,303.299305 1139.778978,299.184864 1145.027240,298.932292 1145.045652,303.068716 1139.719509,303.299305"/>
    <poly id="1159044199" type="building" color="255,230,230" fill="1" layer="-1.00" shape="1139.778978,299.184864 1136.432313,299.467264 1136.330884,286.084790 1144.680700,285.284808 1145.027240,298.932292 1139.778978,299.184864"/>
    <poly id="1159044200" type="building" color="255,230,230" fill="1" layer="-1.00" shape="1136.330884,286.084790 1133.653793,281.400050 1134.363986,274.242950 1135.676198,274.262757 1145.017282,274.356891 1145.128502,274.367755 1144.680700,285.284808 1136.330884,286.084790"/>
    <poly id="1159044201" type="building" color="255,230,230" fill="1" layer="-1.00" shape="1154.159296,275.070739 1154.615499,249.996813 1184.642573,251.525459 1183.530016,276.445705 1154.159296,275.070739"/>
    <poly id="1159044203" type="building" color="255,230,230" fill="1" layer="-1.00" shape="1135.676198,274.262757 1136.259605,264.573130 1145.622714,264.545565 1145.017282,274.356891 1135.676198,274.262757"/>
    <poly id="1159044572" type="parking" color="184,184,179" fill="1" layer="-1.00" shape="1086.689911,361.435855 1086.559554,350.564065 1086.465169,341.174257 1098.773805,340.400486 1110.015086,339.728136 1116.121839,340.745958 1117.194991,350.244644 1114.816203,350.768657 1115.280827,362.015902 1115.524328,367.678214 1104.894124,368.050866 1087.024884,368.524751 1086.689911,361.435855"/>
    <poly id="1159044574" type="building" color="255,230,230" fill="1" layer="-1.00" shape="1115.524328,367.678214 1115.280827,362.015902 1115.222693,360.578199 1114.816203,350.768657 1117.194991,350.244644 1143.894438,350.230773 1142.131874,365.994442 1115.524328,367.678214"/>
    <poly id="1159044575" type="building" color="255,230,230" fill="1" layer="-1.00" shape="1117.194991,350.244644 1116.121839,340.745958 1116.215507,337.107039 1132.093212,336.050475 1131.345115,328.011142 1135.781824,327.881662 1144.577403,327.622839 1143.894438,350.230773 1117.194991,350.244644"/>
    <poly id="1159044576" type="building" color="255,230,230" fill="1" layer="-1.00" shape="1135.781824,327.881662 1135.549871,322.462649 1135.128787,310.684445 1144.291523,310.535575 1144.577403,327.622839 1135.781824,327.881662"/>
    <poly id="1159074383" type="amenity" color="237,199,199" fill="1" layer="-1.00" shape="1140.282395,382.919568 1142.131874,365.994442 1103.493828,368.528915 1105.188385,383.589706 1129.852253,383.236568 1140.282395,382.919568"/>
    <poly id="1159074383#1" type="building" color="255,230,230" fill="1" layer="-1.00" shape="1140.282395,382.919568 1142.131874,365.994442 1103.493828,368.528915 1105.188385,383.589706 1129.852253,383.236568 1140.282395,382.919568"/>
    <poly id="1159505494" type="building" color="255,230,230" fill="1" layer="-1.00" shape="1241.774920,300.299070 1242.236643,290.974634 1254.878847,290.178135 1254.662333,299.822882 1241.774920,300.299070"/>
    <poly id="1159505495" type="building" color="255,230,230" fill="1" layer="-1.00" shape="1242.236643,290.974634 1242.655348,282.479777 1238.329839,282.609065 1233.302788,282.186588 1234.086723,266.402515 1256.916000,266.185292 1254.878847,290.178135 1242.236643,290.974634"/>
    <poly id="1159505496" type="building" color="255,230,230" fill="1" layer="-1.00" shape="1216.199556,300.852929 1216.977289,287.856001 1224.183551,288.086615 1223.005474,301.073190 1216.199556,300.852929"/>
    <poly id="1159505497" type="building" color="255,230,230" fill="1" layer="-1.00" shape="1223.005474,301.073190 1237.026982,300.506523 1238.329839,282.609065 1233.302788,282.186588 1230.477831,281.937189 1229.253757,287.756933 1224.183551,288.086615 1223.005474,301.073190"/>
    <poly id="1159505499" type="building" color="255,230,230" fill="1" layer="-1.00" shape="1216.199556,300.852929 1204.825240,301.757788 1205.237962,289.867509 1205.458965,282.766568 1215.944644,282.416278 1216.977289,287.856001 1216.199556,300.852929"/>
    <poly id="1159505500" type="building" color="255,230,230" fill="1" layer="-1.00" shape="1232.594033,334.302791 1233.448895,308.288048 1256.868268,308.479011 1256.325846,335.101510 1232.594033,334.302791"/>
    <poly id="1159505501" type="building" color="255,230,230" fill="1" layer="-1.00" shape="1232.594033,334.302791 1213.858294,335.275928 1215.258085,309.282346 1233.448895,308.288048 1232.594033,334.302791"/>
    <poly id="1159505502" type="building" color="255,230,230" fill="1" layer="-1.00" shape="1201.064520,338.406356 1213.897407,338.538573 1213.858294,335.275928 1215.258085,309.282346 1201.480265,309.306638 1201.064520,338.406356"/>
    <poly id="1159505503" type="building" color="255,230,230" fill="1" layer="-1.00" shape="1187.943272,338.705987 1189.115831,309.969919 1201.480265,309.306638 1201.064520,338.406356 1193.781118,338.574036 1187.943272,338.705987"/>
    <poly id="1159505504" type="building" color="255,230,230" fill="1" layer="-1.00" shape="1178.319275,310.597255 1189.115831,309.969919 1187.943272,338.705987 1177.925648,339.630569 1178.745498,318.980018 1178.319275,310.597255"/>
    <poly id="1159505505" type="building" color="255,230,230" fill="1" layer="-1.00" shape="1231.765922,350.263903 1232.594033,334.302791 1256.325846,335.101510 1256.642740,350.850464 1231.765922,350.263903"/>
    <poly id="1159505506" type="building" color="255,230,230" fill="1" layer="-1.00" shape="1231.300114,363.581023 1231.765922,350.263903 1256.642740,350.850464 1255.965262,363.946759 1231.300114,363.581023"/>
    <poly id="1159505507" type="building" color="255,230,230" fill="1" layer="-1.00" shape="1254.695441,387.971428 1254.994213,374.521879 1231.116661,373.059809 1231.051682,386.663784 1254.695441,387.971428"/>
    <poly id="1159505508" type="building" color="255,230,230" fill="1" layer="-1.00" shape="1254.994213,374.521879 1255.965262,363.946759 1231.300114,363.581023 1231.116661,373.059809 1254.994213,374.521879"/>
    <poly id="1159505510" type="building" color="255,230,230" fill="1" layer="-1.00" shape="1251.797952,453.817016 1252.315927,444.857462 1240.828543,444.711810 1241.033200,453.570549 1251.797952,453.817016"/>
    <poly id="1159507021" type="building" color="255,230,230" fill="1" layer="-1.00" shape="1006.778557,644.547625 996.325654,644.577078 996.097771,635.143269 1007.939405,634.381410 1006.778557,644.547625"/>
    <poly id="1159507022" type="building" color="255,230,230" fill="1" layer="-1.00" shape="996.097771,635.143269 995.940754,628.065123 981.250735,627.902951 981.586432,635.412123 982.026160,645.166299 996.325654,644.577078 996.097771,635.143269"/>
    <poly id="1159507023" type="building" color="255,230,230" fill="1" layer="-1.00" shape="956.495299,645.753158 982.026160,645.166299 981.586432,635.412123 970.912257,636.083446 970.609415,628.286656 956.643178,628.676209 956.568344,636.705924 956.495299,645.753158"/>
    <poly id="1159507024" type="building" color="255,230,230" fill="1" layer="-1.00" shape="930.370864,637.625752 930.243384,647.336683 956.495299,645.753158 956.568344,636.705924 951.431507,637.091002 930.370864,637.625752"/>
    <poly id="1164887399" type="building" color="255,230,230" fill="1" layer="-1.00" shape="1051.824599,270.992983 1051.945754,257.709663 1077.874435,255.739524 1078.492628,272.096233 1051.824599,270.992983"/>
    <poly id="1164887400" type="building" color="255,230,230" fill="1" layer="-1.00" shape="1051.903572,290.569112 1051.824599,270.992983 1078.492628,272.096233 1078.057586,290.257586 1069.228380,290.361624 1062.000430,290.440721 1051.903572,290.569112"/>
    <poly id="1164887401" type="building" color="255,230,230" fill="1" layer="-1.00" shape="1051.506634,305.113762 1051.463959,299.827138 1061.874967,301.279780 1062.320655,308.091979 1053.325232,308.528109 1051.899286,307.070697 1051.506634,305.113762"/>
    <poly id="1164887402" type="building" color="255,230,230" fill="1" layer="-1.00" shape="1051.463959,299.827138 1051.903572,290.569112 1062.000430,290.440721 1061.874967,301.279780 1051.463959,299.827138"/>
    <poly id="1164887403" type="building" color="255,230,230" fill="1" layer="-1.00" shape="1051.945754,257.709663 1052.050389,241.362742 1075.234722,240.713581 1077.874435,255.739524 1051.945754,257.709663"/>
    <poly id="1164887408" type="building" color="255,230,230" fill="1" layer="-1.00" shape="1026.312427,256.903207 1044.761274,257.213561 1044.870763,243.620581 1035.974081,243.293397 1025.398869,243.312031 1026.312427,256.903207"/>
    <poly id="1164887409" type="building" color="255,230,230" fill="1" layer="-1.00" shape="1030.573793,308.734093 1030.858137,299.708602 1034.460212,299.226674 1035.605459,273.908230 1044.711106,272.918903 1044.786565,303.123734 1041.192907,308.383584 1030.573793,308.734093"/>
    <poly id="1164887410" type="building" color="255,230,230" fill="1" layer="-1.00" shape="1044.761274,257.213561 1044.711106,272.918903 1035.605459,273.908230 1017.595030,276.284690 1018.194269,256.641009 1026.312427,256.903207 1044.761274,257.213561"/>
    <poly id="1166257046" type="building" color="255,230,230" fill="1" layer="-1.00" shape="938.197998,346.146982 938.392494,336.612892 952.635919,335.780429 952.842586,345.789394 938.197998,346.146982"/>
    <poly id="1166257047" type="building" color="255,230,230" fill="1" layer="-1.00" shape="1040.264542,387.387068 1041.133890,375.883098 1025.411479,376.718173 1025.642085,387.689323 1040.264542,387.387068"/>
    <poly id="1166257048" type="building" color="255,230,230" fill="1" layer="-1.00" shape="1041.133890,375.883098 1041.917761,360.043743 1025.084549,361.566499 1025.411479,376.718173 1041.133890,375.883098"/>
    <poly id="1166257049" type="building" color="255,230,230" fill="1" layer="-1.00" shape="1041.917761,360.043743 1041.951103,334.782558 1029.028878,334.429280 1024.513863,334.293453 1025.084549,361.566499 1041.917761,360.043743"/>
    <poly id="1166257050" type="building" color="255,230,230" fill="1" layer="-1.00" shape="1041.951103,334.782558 1042.678341,324.672403 1037.123734,315.148436 1028.561606,315.362600 1029.028878,334.429280 1041.951103,334.782558"/>
    <poly id="1166257051" type="building" color="255,230,230" fill="1" layer="-1.00" shape="1017.609240,315.912775 1017.920564,315.890107 1028.272970,315.639609 1028.739249,334.142230 1018.053258,334.404374 1017.609240,315.912775"/>
    <poly id="1166257052" type="building" color="255,230,230" fill="1" layer="-1.00" shape="1017.488361,316.731431 1017.186929,316.057299 994.380907,316.838493 995.067927,334.400619 1017.819794,334.437965 1017.488361,316.731431"/>
    <poly id="1166257996" type="building" color="255,230,230" fill="1" layer="-1.00" shape="1003.493331,206.078306 981.244212,207.356232 980.681711,216.293731 976.245984,216.976207 976.198305,234.097224 999.215767,233.415191 1002.349379,219.507205 1003.493331,206.078306"/>